
*** ChampSim Multicore Out-of-Order Simulator ***

Warmup Instructions: 10000000
Simulation Instructions: 10000000
Number of CPUs: 1
LLC sets: 2048
LLC ways: 16
Off-chip DRAM Size: 4096 MB Channels: 1 Width: 64-bit Data Rate: 3200 MT/s

CPU 0 runs ./lpf-traces//605.mcf_s-994B.champsimtrace.xz
CPU 0 Bimodal branch predictor
Heartbeat CPU 0 instructions: 10000001 cycles: 4050579 heartbeat IPC: 2.46878 cumulative IPC: 2.46878 (Simulation time: 0 hr 0 min 59 sec) 

Warmup complete CPU 0 instructions: 10000001 cycles: 4050579 (Simulation time: 0 hr 0 min 59 sec) 

Heartbeat CPU 0 instructions: 20000000 cycles: 28828558 heartbeat IPC: 0.403584 cumulative IPC: 0.403584 (Simulation time: 0 hr 1 min 37 sec) 
Finished CPU 0 instructions: 10000002 cycles: 24777980 cumulative IPC: 0.403584 (Simulation time: 0 hr 1 min 37 sec) 

ChampSim completed all CPUs

Region of Interest Statistics

CPU 0 cumulative IPC: 0.403584 instructions: 10000002 cycles: 24777980
L1D TOTAL     ACCESS:    6379331  HIT:    5979791  MISS:     399540
L1D LOAD      ACCESS:    2773519  HIT:    2497005  MISS:     276514
L1D RFO       ACCESS:    1023144  HIT:    1021254  MISS:       1890
L1D PREFETCH  ACCESS:    2582668  HIT:    2461532  MISS:     121136
L1D WRITEBACK ACCESS:          0  HIT:          0  MISS:          0
L1D PREFETCH  REQUESTED:   65262733  ISSUED:   64297848  USEFUL:      41639  USELESS:      79580
L1D AVERAGE MISS LATENCY: 114.746 cycles
L1I TOTAL     ACCESS:    1838951  HIT:    1838951  MISS:          0
L1I LOAD      ACCESS:    1838951  HIT:    1838951  MISS:          0
L1I RFO       ACCESS:          0  HIT:          0  MISS:          0
L1I PREFETCH  ACCESS:          0  HIT:          0  MISS:          0
L1I WRITEBACK ACCESS:          0  HIT:          0  MISS:          0
L1I PREFETCH  REQUESTED:          0  ISSUED:          0  USEFUL:          0  USELESS:          0
L1I AVERAGE MISS LATENCY: -nan cycles
L2C TOTAL     ACCESS:     421715  HIT:     155870  MISS:     265845
L2C LOAD      ACCESS:     229552  HIT:      90006  MISS:     139546
L2C RFO       ACCESS:       1863  HIT:       1553  MISS:        310
L2C PREFETCH  ACCESS:     168133  HIT:      42193  MISS:     125940
L2C WRITEBACK ACCESS:      22167  HIT:      22118  MISS:         49
L2C PREFETCH  REQUESTED:         10  ISSUED:         10  USEFUL:       6890  USELESS:     120014
L2C AVERAGE MISS LATENCY: 160.451 cycles
LLC TOTAL     ACCESS:     278096  HIT:      85645  MISS:     192451
LLC LOAD      ACCESS:     139546  HIT:      50098  MISS:      89448
LLC RFO       ACCESS:        310  HIT:        189  MISS:        121
LLC PREFETCH  ACCESS:     125939  HIT:      23074  MISS:     102865
LLC WRITEBACK ACCESS:      12301  HIT:      12284  MISS:         17
LLC PREFETCH  REQUESTED:          0  ISSUED:          0  USEFUL:       5709  USELESS:      97767
LLC AVERAGE MISS LATENCY: 171.693 cycles
Major fault: 0 Minor fault: 24243

L1D -512>	(0,7)	(198,1)	(-9,1)	(7,119)	(-2,1)	(234,0)	(-18,0)	(9,1)	(-171,0)	(-90,0)	(-108,0)	(-270,0)	(-7,2)	(65,0)	(359,0)	(-432,0)	
L1D -511>	(7,23)	(1,1)	(504,1)	(1,0)	(1,0)	(1,0)	(1,0)	(1,0)	(1,0)	(1,0)	(1,0)	(1,0)	(1,0)	(1,0)	(1,0)	(1,0)	
L1D -510>	(0,1)	(509,1)	(1,0)	(1,0)	(1,0)	(1,0)	(1,0)	(1,0)	(1,0)	(1,0)	(1,0)	(1,0)	(1,0)	(1,0)	(1,0)	(1,0)	
L1D -509>	(0,1)	(508,1)	(1,0)	(1,0)	(1,0)	(1,0)	(1,0)	(1,0)	(1,0)	(1,0)	(1,0)	(1,0)	(1,0)	(1,0)	(1,0)	(1,0)	
L1D -508>	(508,1)	(509,1)	(507,1)	(1,0)	(1,0)	(1,0)	(1,0)	(1,0)	(1,0)	(1,0)	(1,0)	(1,0)	(1,0)	(1,0)	(1,0)	(1,0)	
L1D -507>	(0,1)	(506,1)	(1,0)	(1,0)	(1,0)	(1,0)	(1,0)	(1,0)	(1,0)	(1,0)	(1,0)	(1,0)	(1,0)	(1,0)	(1,0)	(1,0)	
L1D -506>	(0,18)	(441,1)	(263,1)	(128,14)	(506,14)	(2,1)	(29,2)	(212,1)	(135,3)	(423,1)	(416,1)	(36,2)	(20,1)	(245,1)	(74,5)	(434,4)	
L1D -505>	(0,1)	(504,1)	(7,2)	(1,0)	(1,0)	(1,0)	(1,0)	(1,0)	(1,0)	(1,0)	(1,0)	(1,0)	(1,0)	(1,0)	(1,0)	(1,0)	
L1D -504>	(7,87)	(47,2)	(0,27)	(504,16)	(119,1)	(497,41)	(11,12)	(18,4)	(495,1)	(488,1)	(81,1)	(414,5)	(215,1)	(407,9)	(326,1)	(-7,3)	
L1D -503>	(0,8)	(1,0)	(1,0)	(1,0)	(1,0)	(1,0)	(1,0)	(1,0)	(1,0)	(1,0)	(1,0)	(1,0)	(1,0)	(1,0)	(1,0)	(1,0)	
L1D -502>	(7,93)	(0,4)	(501,1)	(299,1)	(495,2)	(448,1)	(1,2)	(503,1)	(492,1)	(493,1)	(36,2)	(324,1)	(331,1)	(1,0)	(1,0)	(1,0)	
L1D -501>	(502,2)	(0,3)	(503,1)	(416,1)	(1,0)	(1,0)	(1,0)	(1,0)	(1,0)	(1,0)	(1,0)	(1,0)	(1,0)	(1,0)	(1,0)	(1,0)	
L1D -500>	(0,3)	(119,1)	(501,3)	(499,1)	(1,0)	(1,0)	(1,0)	(1,0)	(1,0)	(1,0)	(1,0)	(1,0)	(1,0)	(1,0)	(1,0)	(1,0)	
L1D -499>	(0,4)	(498,1)	(499,1)	(500,3)	(493,1)	(1,0)	(1,0)	(1,0)	(1,0)	(1,0)	(1,0)	(1,0)	(1,0)	(1,0)	(1,0)	(1,0)	
L1D -498>	(0,3)	(499,2)	(4,1)	(497,1)	(498,1)	(1,0)	(1,0)	(1,0)	(1,0)	(1,0)	(1,0)	(1,0)	(1,0)	(1,0)	(1,0)	(1,0)	
L1D -497>	(497,13)	(504,15)	(0,14)	(-7,22)	(65,1)	(496,1)	(407,1)	(333,1)	(11,1)	(488,2)	(498,1)	(494,1)	(452,1)	(1,1)	(263,1)	(1,0)	
L1D -496>	(219,1)	(497,1)	(7,2)	(0,2)	(495,1)	(1,0)	(1,0)	(1,0)	(1,0)	(1,0)	(1,0)	(1,0)	(1,0)	(1,0)	(1,0)	(1,0)	
L1D -495>	(7,121)	(29,12)	(-7,18)	(324,3)	(488,12)	(101,3)	(0,18)	(502,4)	(495,16)	(317,4)	(171,3)	(263,2)	(47,4)	(389,1)	(56,5)	(479,2)	
L1D -494>	(124,1)	(221,1)	(1,1)	(494,2)	(0,2)	(7,1)	(495,3)	(498,1)	(61,1)	(493,1)	(308,1)	(1,0)	(1,0)	(1,0)	(1,0)	(1,0)	
L1D -493>	(7,114)	(54,2)	(414,1)	(486,1)	(477,1)	(493,1)	(72,2)	(-11,2)	(117,0)	(79,0)	(439,0)	(0,3)	(494,1)	(36,0)	(500,0)	(492,0)	
L1D -492>	(0,5)	(1,2)	(493,2)	(7,5)	(4,1)	(1,0)	(1,0)	(1,0)	(1,0)	(1,0)	(1,0)	(1,0)	(1,0)	(1,0)	(1,0)	(1,0)	
L1D -491>	(0,2)	(227,1)	(491,3)	(492,4)	(503,1)	(12,1)	(7,2)	(1,0)	(1,0)	(1,0)	(1,0)	(1,0)	(1,0)	(1,0)	(1,0)	(1,0)	
L1D -490>	(491,4)	(0,4)	(1,2)	(7,1)	(13,1)	(14,1)	(489,1)	(1,0)	(1,0)	(1,0)	(1,0)	(1,0)	(1,0)	(1,0)	(1,0)	(1,0)	
L1D -489>	(490,5)	(232,1)	(1,1)	(488,1)	(489,1)	(0,3)	(22,1)	(23,1)	(7,1)	(1,0)	(1,0)	(1,0)	(1,0)	(1,0)	(1,0)	(1,0)	
L1D -488>	(-7,30)	(0,12)	(173,1)	(495,19)	(488,14)	(171,1)	(441,1)	(489,4)	(479,1)	(324,2)	(317,1)	(83,1)	(263,2)	(487,1)	(30,1)	(31,1)	
L1D -487>	(488,2)	(445,1)	(486,3)	(0,5)	(1,1)	(34,1)	(35,1)	(92,1)	(487,2)	(240,1)	(1,0)	(1,0)	(1,0)	(1,0)	(1,0)	(1,0)	
L1D -486>	(-7,49)	(7,74)	(425,21)	(47,9)	(0,27)	(479,22)	(486,11)	(1,1)	(36,2)	(470,10)	(477,3)	(54,4)	(488,3)	(461,2)	(72,2)	(493,15)	
L1D -485>	(485,2)	(25,1)	(0,4)	(1,1)	(486,2)	(47,1)	(48,1)	(484,1)	(1,0)	(1,0)	(1,0)	(1,0)	(1,0)	(1,0)	(1,0)	(1,0)	
L1D -484>	(7,120)	(225,1)	(477,1)	(468,0)	(52,0)	(53,0)	(162,0)	(432,1)	(54,0)	(0,2)	(61,0)	(-11,0)	(484,0)	(1,0)	(1,0)	(1,0)	
L1D -483>	(482,1)	(37,1)	(38,1)	(484,3)	(7,1)	(0,3)	(58,1)	(59,1)	(483,1)	(1,0)	(1,0)	(1,0)	(1,0)	(1,0)	(1,0)	(1,0)	
L1D -482>	(162,1)	(481,2)	(0,4)	(483,1)	(60,1)	(61,1)	(482,1)	(1,0)	(1,0)	(1,0)	(1,0)	(1,0)	(1,0)	(1,0)	(1,0)	(1,0)	
L1D -481>	(480,3)	(481,4)	(0,8)	(1,1)	(71,1)	(72,1)	(1,0)	(1,0)	(1,0)	(1,0)	(1,0)	(1,0)	(1,0)	(1,0)	(1,0)	(1,0)	
L1D -480>	(0,5)	(480,3)	(479,2)	(38,1)	(481,3)	(7,1)	(76,1)	(1,0)	(1,0)	(1,0)	(1,0)	(1,0)	(1,0)	(1,0)	(1,0)	(1,0)	
L1D -479>	(480,2)	(0,13)	(486,42)	(-7,43)	(479,14)	(432,1)	(2,1)	(344,1)	(47,1)	(36,1)	(1,1)	(478,3)	(396,1)	(326,1)	(56,1)	(389,1)	
L1D -478>	(477,1)	(478,2)	(0,3)	(1,3)	(146,1)	(479,1)	(-13,1)	(91,1)	(92,1)	(1,0)	(1,0)	(1,0)	(1,0)	(1,0)	(1,0)	(1,0)	
L1D -477>	(0,18)	(7,64)	(-7,31)	(479,3)	(470,15)	(484,13)	(-29,0)	(11,0)	(182,0)	(476,0)	(478,0)	(380,0)	(225,1)	(425,3)	(432,1)	(477,12)	
L1D -476>	(0,5)	(43,1)	(236,1)	(476,2)	(477,1)	(92,1)	(475,1)	(1,0)	(1,0)	(1,0)	(1,0)	(1,0)	(1,0)	(1,0)	(1,0)	(1,0)	
L1D -475>	(7,117)	(214,1)	(61,1)	(225,1)	(9,1)	(369,0)	(0,3)	(468,1)	(475,2)	(423,1)	(474,1)	(476,1)	(1,0)	(96,0)	(97,0)	(1,0)	
L1D -474>	(293,1)	(473,4)	(0,4)	(475,4)	(153,3)	(99,1)	(100,1)	(474,2)	(1,0)	(1,0)	(1,0)	(1,0)	(1,0)	(1,0)	(1,0)	(1,0)	
L1D -473>	(0,7)	(472,2)	(46,1)	(474,2)	(101,1)	(102,1)	(473,1)	(81,1)	(1,0)	(1,0)	(1,0)	(1,0)	(1,0)	(1,0)	(1,0)	(1,0)	
L1D -472>	(382,1)	(0,5)	(471,4)	(1,1)	(47,1)	(48,1)	(7,3)	(473,2)	(103,1)	(104,1)	(1,0)	(1,0)	(1,0)	(1,0)	(1,0)	(1,0)	
L1D -471>	(0,5)	(385,1)	(470,2)	(236,1)	(52,1)	(53,1)	(171,1)	(471,2)	(472,3)	(107,1)	(108,1)	(1,0)	(1,0)	(1,0)	(1,0)	(1,0)	
L1D -470>	(-7,59)	(477,45)	(0,17)	(486,1)	(182,1)	(-9,1)	(470,34)	(469,5)	(398,1)	(479,2)	(432,1)	(72,1)	(1,2)	(272,1)	(471,3)	(7,1)	
L1D -469>	(468,4)	(1,3)	(235,1)	(0,5)	(469,2)	(470,5)	(1,0)	(1,0)	(1,0)	(1,0)	(1,0)	(1,0)	(1,0)	(1,0)	(1,0)	(1,0)	
L1D -468>	(-7,40)	(0,17)	(468,10)	(461,15)	(7,51)	(54,4)	(469,4)	(475,13)	(11,3)	(209,3)	(216,1)	(29,2)	(36,1)	(47,11)	(479,3)	(236,2)	
L1D -467>	(467,4)	(0,4)	(466,1)	(53,1)	(468,2)	(115,1)	(116,1)	(1,0)	(1,0)	(1,0)	(1,0)	(1,0)	(1,0)	(1,0)	(1,0)	(1,0)	
L1D -466>	(7,125)	(467,1)	(0,3)	(162,1)	(466,1)	(297,5)	(1,1)	(459,1)	(304,2)	(237,0)	(423,1)	(97,0)	(465,0)	(430,1)	(406,0)	(144,0)	
L1D -465>	(465,3)	(0,4)	(1,2)	(239,1)	(464,3)	(55,1)	(466,2)	(2,1)	(122,1)	(123,1)	(7,1)	(1,0)	(1,0)	(1,0)	(1,0)	(1,0)	
L1D -464>	(0,7)	(240,1)	(463,4)	(7,2)	(465,4)	(464,2)	(2,1)	(425,1)	(1,0)	(1,0)	(1,0)	(1,0)	(1,0)	(1,0)	(1,0)	(1,0)	
L1D -463>	(0,5)	(241,1)	(1,2)	(108,1)	(462,2)	(7,2)	(29,1)	(463,2)	(464,2)	(127,1)	(1,0)	(1,0)	(1,0)	(1,0)	(1,0)	(1,0)	
L1D -462>	(462,1)	(463,5)	(395,1)	(0,3)	(461,3)	(2,2)	(1,2)	(464,1)	(133,1)	(1,0)	(1,0)	(1,0)	(1,0)	(1,0)	(1,0)	(1,0)	
L1D -461>	(-7,43)	(461,12)	(468,26)	(2,1)	(315,1)	(119,1)	(47,3)	(0,12)	(36,1)	(54,1)	(423,2)	(416,1)	(225,1)	(200,1)	(462,3)	(136,1)	
L1D -460>	(459,3)	(1,2)	(0,4)	(61,1)	(461,4)	(460,3)	(144,1)	(240,1)	(1,0)	(1,0)	(1,0)	(1,0)	(1,0)	(1,0)	(1,0)	(1,0)	
L1D -459>	(506,2)	(-7,54)	(7,60)	(0,17)	(459,11)	(304,3)	(460,2)	(452,1)	(466,18)	(-36,3)	(297,3)	(-43,1)	(416,11)	(423,1)	(1,1)	(470,3)	
L1D -458>	(0,5)	(1,2)	(459,5)	(62,1)	(7,3)	(458,4)	(457,1)	(190,1)	(191,1)	(1,0)	(1,0)	(1,0)	(1,0)	(1,0)	(1,0)	(1,0)	
L1D -457>	(7,123)	(270,1)	(333,1)	(191,1)	(192,1)	(0,2)	(457,1)	(484,1)	(456,2)	(450,2)	(261,0)	(340,0)	(458,0)	(-36,0)	(36,0)	(342,0)	
L1D -456>	(0,6)	(405,1)	(455,2)	(207,1)	(136,1)	(137,1)	(457,3)	(456,4)	(157,1)	(158,1)	(7,1)	(1,0)	(1,0)	(1,0)	(1,0)	(1,0)	
L1D -455>	(0,7)	(456,3)	(454,5)	(1,2)	(66,1)	(2,1)	(7,1)	(455,1)	(194,1)	(195,1)	(1,0)	(1,0)	(1,0)	(1,0)	(1,0)	(1,0)	
L1D -454>	(0,6)	(453,4)	(1,1)	(454,3)	(7,2)	(455,4)	(158,1)	(196,1)	(197,1)	(1,0)	(1,0)	(1,0)	(1,0)	(1,0)	(1,0)	(1,0)	
L1D -453>	(0,7)	(452,5)	(453,2)	(69,1)	(454,4)	(1,0)	(1,0)	(1,0)	(1,0)	(1,0)	(1,0)	(1,0)	(1,0)	(1,0)	(1,0)	(1,0)	
L1D -452>	(0,13)	(452,10)	(459,35)	(-36,1)	(-7,44)	(451,5)	(423,1)	(290,2)	(453,4)	(62,1)	(416,1)	(389,1)	(477,1)	(470,1)	(70,1)	(7,2)	
L1D -451>	(450,4)	(0,5)	(451,3)	(7,2)	(137,1)	(452,5)	(165,1)	(166,1)	(1,2)	(1,0)	(1,0)	(1,0)	(1,0)	(1,0)	(1,0)	(1,0)	
L1D -450>	(-7,41)	(7,91)	(450,11)	(0,31)	(451,1)	(443,24)	(353,1)	(457,10)	(324,1)	(333,1)	(198,1)	(398,1)	(1,1)	(449,2)	(38,1)	(279,0)	
L1D -449>	(449,4)	(0,12)	(450,4)	(1,2)	(448,3)	(7,3)	(196,1)	(197,1)	(1,0)	(1,0)	(1,0)	(1,0)	(1,0)	(1,0)	(1,0)	(1,0)	
L1D -448>	(7,87)	(298,0)	(0,1)	(448,0)	(81,1)	(441,1)	(88,0)	(9,2)	(449,0)	(199,0)	(447,0)	(16,0)	(1,0)	(1,0)	(1,0)	(1,0)	
L1D -447>	(0,6)	(448,4)	(-1,1)	(447,2)	(1,1)	(446,2)	(7,1)	(202,1)	(2,1)	(1,0)	(1,0)	(1,0)	(1,0)	(1,0)	(1,0)	(1,0)	
L1D -446>	(1,2)	(445,4)	(0,10)	(245,1)	(77,1)	(447,4)	(446,5)	(202,1)	(7,1)	(1,0)	(1,0)	(1,0)	(1,0)	(1,0)	(1,0)	(1,0)	
L1D -445>	(0,7)	(444,5)	(7,2)	(445,1)	(224,1)	(1,4)	(446,2)	(204,1)	(205,1)	(1,0)	(1,0)	(1,0)	(1,0)	(1,0)	(1,0)	(1,0)	
L1D -444>	(0,11)	(1,3)	(-7,1)	(142,1)	(80,1)	(445,4)	(205,1)	(206,1)	(444,2)	(210,1)	(1,0)	(1,0)	(1,0)	(1,0)	(1,0)	(1,0)	
L1D -443>	(-7,57)	(0,22)	(443,25)	(450,30)	(191,1)	(413,1)	(442,3)	(1,5)	(2,1)	(272,1)	(60,1)	(47,1)	(326,1)	(81,1)	(416,3)	(444,3)	
L1D -442>	(442,5)	(0,4)	(416,1)	(441,4)	(1,1)	(62,1)	(67,1)	(443,4)	(218,1)	(2,1)	(1,0)	(1,0)	(1,0)	(1,0)	(1,0)	(1,0)	
L1D -441>	(448,32)	(0,27)	(7,125)	(-7,85)	(442,3)	(2,8)	(81,4)	(441,12)	(344,3)	(209,3)	(506,3)	(434,4)	(1,1)	(9,9)	(351,1)	(369,1)	
L1D -440>	(0,17)	(1,2)	(439,4)	(440,2)	(81,1)	(441,1)	(223,1)	(130,1)	(1,0)	(1,0)	(1,0)	(1,0)	(1,0)	(1,0)	(1,0)	(1,0)	
L1D -439>	(7,64)	(-2,1)	(117,0)	(486,0)	(124,0)	(90,0)	(477,0)	(430,0)	(135,0)	(367,0)	(-9,0)	(439,0)	(1,0)	(1,0)	(1,0)	(1,0)	
L1D -438>	(0,10)	(437,4)	(1,3)	(7,2)	(439,5)	(-40,1)	(237,1)	(238,1)	(438,4)	(1,0)	(1,0)	(1,0)	(1,0)	(1,0)	(1,0)	(1,0)	
L1D -437>	(0,6)	(436,5)	(1,2)	(65,1)	(83,1)	(438,3)	(7,3)	(236,1)	(437,3)	(4,1)	(1,0)	(1,0)	(1,0)	(1,0)	(1,0)	(1,0)	
L1D -436>	(0,9)	(435,2)	(1,2)	(437,4)	(146,1)	(436,3)	(84,1)	(7,4)	(246,1)	(2,1)	(1,0)	(1,0)	(1,0)	(1,0)	(1,0)	(1,0)	
L1D -435>	(2,1)	(0,12)	(418,1)	(434,3)	(254,1)	(435,3)	(1,3)	(7,1)	(1,0)	(1,0)	(1,0)	(1,0)	(1,0)	(1,0)	(1,0)	(1,0)	
L1D -434>	(441,35)	(434,19)	(-7,53)	(81,1)	(20,1)	(419,1)	(0,14)	(72,1)	(74,3)	(9,2)	(65,1)	(433,8)	(255,1)	(392,1)	(378,1)	(435,3)	
L1D -433>	(420,1)	(1,4)	(432,4)	(256,1)	(0,6)	(393,1)	(433,2)	(434,5)	(70,1)	(1,0)	(1,0)	(1,0)	(1,0)	(1,0)	(1,0)	(1,0)	
L1D -432>	(479,9)	(0,23)	(432,15)	(439,21)	(7,83)	(-7,49)	(425,17)	(83,5)	(470,1)	(452,1)	(-54,1)	(110,2)	(90,1)	(-61,1)	(486,1)	(431,1)	
L1D -431>	(431,4)	(0,11)	(1,3)	(81,1)	(2,1)	(430,5)	(7,2)	(432,3)	(254,1)	(227,1)	(1,0)	(1,0)	(1,0)	(1,0)	(1,0)	(1,0)	
L1D -430>	(0,2)	(7,92)	(342,1)	(459,1)	(261,0)	(178,0)	(423,1)	(333,0)	(228,0)	(229,0)	(9,0)	(358,0)	(421,0)	(429,0)	(151,0)	(1,0)	
L1D -429>	(428,4)	(429,5)	(430,4)	(0,6)	(152,1)	(257,1)	(-7,1)	(1,1)	(1,0)	(1,0)	(1,0)	(1,0)	(1,0)	(1,0)	(1,0)	(1,0)	
L1D -428>	(0,9)	(429,7)	(427,5)	(1,3)	(428,2)	(73,1)	(261,1)	(262,1)	(1,0)	(1,0)	(1,0)	(1,0)	(1,0)	(1,0)	(1,0)	(1,0)	
L1D -427>	(1,3)	(0,11)	(53,1)	(427,4)	(403,1)	(74,1)	(426,3)	(2,1)	(88,1)	(7,2)	(428,3)	(229,1)	(1,0)	(1,0)	(1,0)	(1,0)	
L1D -426>	(7,1)	(425,4)	(1,3)	(0,9)	(406,1)	(426,4)	(153,1)	(-47,1)	(427,3)	(273,1)	(1,0)	(1,0)	(1,0)	(1,0)	(1,0)	(1,0)	
L1D -425>	(424,4)	(425,34)	(432,66)	(0,18)	(-7,105)	(360,1)	(426,1)	(353,1)	(2,1)	(7,1)	(1,1)	(288,1)	(497,1)	(232,1)	(486,2)	(233,1)	
L1D -424>	(0,8)	(423,5)	(2,1)	(1,5)	(425,2)	(299,1)	(300,1)	(424,1)	(1,0)	(1,0)	(1,0)	(1,0)	(1,0)	(1,0)	(1,0)	(1,0)	
L1D -423>	(-7,96)	(423,13)	(7,112)	(416,21)	(407,18)	(452,5)	(430,42)	(459,2)	(0,26)	(421,2)	(414,2)	(1,1)	(2,4)	(9,1)	(16,1)	(38,1)	
L1D -422>	(1,3)	(0,17)	(421,4)	(413,1)	(91,1)	(422,2)	(162,1)	(423,3)	(318,1)	(319,1)	(238,1)	(239,1)	(420,1)	(1,0)	(1,0)	(1,0)	
L1D -421>	(7,126)	(-2,2)	(160,1)	(-9,1)	(342,1)	(360,0)	(421,2)	(337,0)	(0,0)	(54,0)	(90,0)	(-47,0)	(61,0)	(-74,0)	(367,0)	(1,0)	
L1D -420>	(0,11)	(419,8)	(10,1)	(1,2)	(420,2)	(74,1)	(2,1)	(421,1)	(339,1)	(340,1)	(7,1)	(242,1)	(243,1)	(1,0)	(1,0)	(1,0)	
L1D -419>	(433,1)	(0,11)	(418,2)	(420,5)	(165,1)	(92,1)	(7,2)	(419,4)	(340,1)	(341,1)	(244,1)	(245,1)	(1,1)	(1,0)	(1,0)	(1,0)	
L1D -418>	(0,12)	(434,1)	(419,5)	(1,2)	(417,7)	(418,4)	(94,1)	(207,1)	(348,1)	(349,1)	(-1,1)	(1,0)	(1,0)	(1,0)	(1,0)	(1,0)	
L1D -417>	(416,8)	(417,4)	(0,8)	(1,3)	(420,1)	(52,1)	(75,1)	(167,1)	(418,2)	(7,1)	(378,1)	(379,1)	(1,0)	(1,0)	(1,0)	(1,0)	
L1D -416>	(-7,87)	(415,4)	(416,17)	(423,72)	(0,21)	(1,2)	(407,1)	(13,1)	(108,2)	(117,1)	(380,1)	(459,4)	(452,4)	(417,4)	(506,1)	(95,1)	
L1D -415>	(1,4)	(14,1)	(0,8)	(414,4)	(3,2)	(98,1)	(415,5)	(416,2)	(387,1)	(388,1)	(252,1)	(253,1)	(1,0)	(1,0)	(1,0)	(1,0)	
L1D -414>	(414,10)	(7,81)	(137,2)	(-7,75)	(421,33)	(83,2)	(353,2)	(335,1)	(416,4)	(146,3)	(407,17)	(0,26)	(90,1)	(413,3)	(-9,2)	(153,1)	
L1D -413>	(412,7)	(0,14)	(1,4)	(294,1)	(414,4)	(413,3)	(422,1)	(11,1)	(100,1)	(168,1)	(-54,1)	(99,1)	(7,1)	(1,0)	(1,0)	(1,0)	
L1D -412>	(313,1)	(7,67)	(0,1)	(81,1)	(-11,0)	(396,0)	(405,1)	(88,0)	(378,0)	(412,0)	(153,0)	(324,0)	(1,0)	(1,0)	(1,0)	(1,0)	
L1D -411>	(410,4)	(0,15)	(1,1)	(411,3)	(172,1)	(173,1)	(412,4)	(51,1)	(7,1)	(256,1)	(1,0)	(1,0)	(1,0)	(1,0)	(1,0)	(1,0)	
L1D -410>	(1,3)	(0,17)	(2,1)	(15,1)	(106,2)	(409,5)	(410,3)	(411,2)	(7,1)	(1,0)	(1,0)	(1,0)	(1,0)	(1,0)	(1,0)	(1,0)	
L1D -409>	(1,2)	(0,16)	(409,6)	(17,1)	(408,7)	(107,1)	(410,4)	(-56,1)	(257,1)	(7,1)	(1,0)	(1,0)	(1,0)	(1,0)	(1,0)	(1,0)	
L1D -408>	(0,15)	(407,5)	(409,5)	(1,2)	(408,2)	(7,1)	(173,1)	(111,1)	(2,1)	(261,1)	(262,1)	(1,0)	(1,0)	(1,0)	(1,0)	(1,0)	
L1D -407>	(414,65)	(0,13)	(-7,105)	(407,19)	(7,2)	(497,1)	(47,2)	(146,2)	(423,1)	(153,1)	(408,3)	(406,4)	(54,1)	(416,3)	(-81,1)	(155,1)	
L1D -406>	(1,5)	(405,8)	(407,4)	(0,10)	(20,1)	(406,5)	(204,1)	(81,1)	(264,1)	(7,1)	(1,0)	(1,0)	(1,0)	(1,0)	(1,0)	(1,0)	
L1D -405>	(1,2)	(7,96)	(-7,101)	(405,13)	(396,1)	(83,1)	(0,16)	(412,32)	(306,3)	(63,1)	(18,1)	(398,11)	(81,4)	(406,3)	(404,4)	(11,3)	
L1D -404>	(405,5)	(456,1)	(0,9)	(7,1)	(404,8)	(403,3)	(1,2)	(297,1)	(175,1)	(114,1)	(3,1)	(217,1)	(1,0)	(1,0)	(1,0)	(1,0)	
L1D -403>	(7,68)	(405,0)	(403,1)	(396,0)	(99,0)	(402,1)	(-9,0)	(421,0)	(9,0)	(404,0)	(378,1)	(94,0)	(387,0)	(290,0)	(1,0)	(1,0)	
L1D -402>	(0,24)	(461,1)	(402,6)	(21,1)	(401,8)	(403,1)	(-59,1)	(7,1)	(1,2)	(54,1)	(1,0)	(1,0)	(1,0)	(1,0)	(1,0)	(1,0)	
L1D -401>	(402,4)	(0,15)	(400,6)	(2,1)	(1,3)	(117,1)	(118,1)	(7,3)	(401,4)	(-79,1)	(6,1)	(66,1)	(270,1)	(1,0)	(1,0)	(1,0)	
L1D -400>	(399,9)	(0,17)	(398,1)	(1,4)	(400,6)	(266,1)	(401,7)	(83,1)	(96,1)	(178,1)	(122,1)	(123,1)	(36,1)	(7,1)	(402,1)	(273,1)	
L1D -399>	(1,1)	(399,3)	(0,17)	(267,1)	(398,5)	(98,1)	(179,1)	(126,1)	(127,1)	(7,3)	(400,3)	(274,1)	(275,1)	(8,1)	(1,0)	(1,0)	
L1D -398>	(1,5)	(405,60)	(399,5)	(398,28)	(-7,102)	(81,2)	(263,1)	(0,18)	(164,1)	(26,1)	(299,2)	(397,6)	(306,2)	(479,1)	(396,2)	(360,1)	
L1D -397>	(1,5)	(21,1)	(397,11)	(0,12)	(398,3)	(396,9)	(186,1)	(127,1)	(276,1)	(130,1)	(1,0)	(1,0)	(1,0)	(1,0)	(1,0)	(1,0)	
L1D -396>	(0,24)	(-7,78)	(396,14)	(7,77)	(403,26)	(389,8)	(207,2)	(479,1)	(353,1)	(2,4)	(9,2)	(378,3)	(371,1)	(405,1)	(397,5)	(395,6)	
L1D -395>	(23,1)	(0,13)	(29,1)	(1,2)	(396,6)	(8,1)	(395,8)	(394,3)	(-63,1)	(7,3)	(144,1)	(276,1)	(10,1)	(131,1)	(-7,1)	(1,0)	
L1D -394>	(7,121)	(9,2)	(423,1)	(187,1)	(90,1)	(0,4)	(61,1)	(393,1)	(387,3)	(126,4)	(1,1)	(36,1)	(369,1)	(394,1)	(77,0)	(396,0)	
L1D -393>	(465,1)	(1,4)	(392,4)	(0,18)	(394,5)	(432,1)	(127,1)	(86,1)	(7,1)	(108,1)	(393,3)	(78,1)	(79,1)	(285,1)	(286,1)	(36,1)	
L1D -392>	(0,19)	(122,1)	(391,5)	(392,6)	(270,1)	(1,1)	(393,7)	(433,1)	(10,1)	(137,1)	(147,1)	(84,1)	(85,1)	(2,1)	(-54,1)	(7,2)	
L1D -391>	(0,15)	(470,1)	(390,13)	(391,8)	(392,8)	(39,2)	(2,1)	(139,1)	(140,1)	(7,3)	(1,2)	(88,1)	(89,1)	(287,1)	(40,1)	(1,0)	
L1D -390>	(0,12)	(389,8)	(1,5)	(391,7)	(439,1)	(40,1)	(42,1)	(11,1)	(141,1)	(142,1)	(7,1)	(288,1)	(289,1)	(137,1)	(1,0)	(1,0)	
L1D -389>	(388,7)	(396,50)	(-7,81)	(390,5)	(389,19)	(0,21)	(398,1)	(342,1)	(27,1)	(297,1)	(290,1)	(279,1)	(371,4)	(1,2)	(198,1)	(273,1)	
L1D -388>	(387,10)	(0,13)	(388,8)	(389,6)	(1,3)	(13,1)	(191,1)	(-67,1)	(144,1)	(145,1)	(7,2)	(301,1)	(302,1)	(43,1)	(44,1)	(-10,1)	
L1D -387>	(2,3)	(7,110)	(-7,107)	(386,7)	(362,2)	(394,43)	(380,11)	(389,3)	(180,2)	(90,3)	(173,4)	(187,2)	(9,2)	(54,2)	(0,23)	(387,10)	
L1D -386>	(385,5)	(0,15)	(386,3)	(387,8)	(50,1)	(91,1)	(120,1)	(192,1)	(145,1)	(146,1)	(7,3)	(15,1)	(1,0)	(1,0)	(1,0)	(1,0)	
L1D -385>	(7,112)	(385,1)	(307,0)	(308,0)	(0,0)	(378,3)	(403,1)	(386,0)	(-9,0)	(16,0)	(243,0)	(396,1)	(9,0)	(225,0)	(-63,0)	(384,1)	
L1D -384>	(0,17)	(141,1)	(384,5)	(35,1)	(1,3)	(383,5)	(136,1)	(2,1)	(385,3)	(7,1)	(96,1)	(308,1)	(309,1)	(-27,1)	(45,1)	(-11,1)	
L1D -383>	(382,7)	(0,16)	(1,6)	(20,1)	(-70,1)	(383,3)	(384,3)	(-93,1)	(19,1)	(76,1)	(2,1)	(46,1)	(1,0)	(1,0)	(1,0)	(1,0)	
L1D -382>	(1,5)	(381,11)	(382,2)	(0,14)	(321,1)	(54,1)	(21,1)	(383,4)	(194,1)	(7,1)	(154,1)	(146,1)	(1,0)	(1,0)	(1,0)	(1,0)	
L1D -381>	(0,22)	(381,8)	(1,3)	(473,1)	(43,1)	(380,6)	(197,1)	(198,1)	(-71,1)	(150,2)	(7,6)	(382,6)	(273,1)	(2,1)	(47,1)	(149,1)	
L1D -380>	(-7,116)	(0,31)	(387,74)	(381,6)	(380,31)	(47,2)	(36,3)	(72,2)	(2,1)	(379,6)	(173,1)	(362,2)	(333,1)	(1,2)	(369,1)	(24,1)	
L1D -379>	(1,4)	(0,13)	(31,1)	(48,1)	(378,12)	(280,1)	(25,1)	(139,1)	(202,1)	(203,1)	(380,6)	(379,2)	(-10,1)	(20,1)	(51,1)	(-12,1)	
L1D -378>	(7,88)	(-7,60)	(385,26)	(371,9)	(254,1)	(9,1)	(0,18)	(-128,1)	(377,2)	(317,1)	(2,1)	(-9,1)	(378,14)	(379,2)	(191,4)	(18,1)	
L1D -377>	(0,22)	(376,12)	(378,6)	(39,1)	(377,6)	(1,3)	(158,1)	(101,1)	(319,1)	(7,1)	(1,0)	(1,0)	(1,0)	(1,0)	(1,0)	(1,0)	
L1D -376>	(7,108)	(369,1)	(387,1)	(-9,6)	(-54,1)	(376,1)	(-13,0)	(375,2)	(327,0)	(151,0)	(270,0)	(1,0)	(1,0)	(1,0)	(1,0)	(1,0)	
L1D -375>	(374,12)	(0,17)	(375,9)	(1,2)	(376,7)	(204,1)	(7,1)	(22,1)	(281,1)	(1,0)	(1,0)	(1,0)	(1,0)	(1,0)	(1,0)	(1,0)	
L1D -374>	(0,18)	(373,9)	(1,4)	(374,7)	(2,1)	(7,4)	(375,7)	(283,1)	(284,1)	(-29,1)	(-14,1)	(158,1)	(1,0)	(1,0)	(1,0)	(1,0)	
L1D -373>	(158,1)	(373,4)	(372,8)	(0,15)	(92,1)	(374,5)	(7,1)	(139,1)	(1,2)	(25,1)	(108,1)	(330,1)	(160,1)	(1,0)	(1,0)	(1,0)	
L1D -372>	(371,11)	(0,13)	(2,1)	(373,9)	(372,7)	(1,4)	(141,1)	(7,4)	(332,1)	(333,1)	(55,1)	(163,1)	(164,1)	(1,0)	(1,0)	(1,0)	
L1D -371>	(-7,72)	(29,1)	(0,16)	(378,54)	(371,16)	(370,5)	(2,1)	(337,1)	(74,0)	(135,0)	(389,1)	(1,2)	(372,3)	(46,0)	(351,0)	(4,0)	
L1D -370>	(370,10)	(0,17)	(1,3)	(327,1)	(371,8)	(369,7)	(68,1)	(28,1)	(7,2)	(-16,1)	(113,1)	(340,1)	(341,1)	(165,1)	(166,1)	(1,0)	
L1D -369>	(432,2)	(-7,83)	(7,109)	(0,21)	(376,38)	(362,7)	(1,3)	(369,11)	(370,1)	(368,5)	(57,1)	(394,1)	(173,3)	(182,1)	(-9,5)	(126,1)	
L1D -368>	(367,11)	(0,10)	(369,13)	(1,4)	(330,1)	(368,6)	(97,1)	(-78,1)	(159,1)	(160,1)	(291,1)	(343,1)	(344,1)	(-31,1)	(168,1)	(7,1)	
L1D -367>	(7,93)	(-11,1)	(171,0)	(172,0)	(0,2)	(-72,0)	(-54,0)	(368,0)	(360,3)	(259,0)	(160,0)	(252,0)	(36,0)	(1,0)	(1,0)	(1,0)	
L1D -366>	(1,4)	(365,10)	(366,8)	(0,20)	(71,1)	(10,1)	(367,6)	(331,1)	(-79,1)	(163,1)	(164,1)	(7,4)	(161,1)	(364,1)	(172,1)	(173,1)	
L1D -365>	(364,13)	(365,6)	(0,13)	(1,2)	(72,1)	(261,1)	(213,1)	(366,2)	(60,1)	(118,1)	(119,1)	(293,1)	(-33,1)	(-7,1)	(174,1)	(7,1)	
L1D -364>	(363,14)	(1,2)	(177,1)	(0,21)	(364,10)	(285,1)	(31,1)	(161,1)	(365,4)	(158,1)	(214,1)	(215,1)	(7,1)	(366,1)	(62,1)	(176,1)	
L1D -363>	(362,9)	(0,15)	(363,6)	(1,5)	(2,1)	(32,2)	(166,1)	(364,3)	(-20,1)	(61,1)	(294,1)	(348,1)	(66,1)	(-15,1)	(179,1)	(180,1)	
L1D -362>	(361,13)	(-7,102)	(362,32)	(369,59)	(0,31)	(65,3)	(363,4)	(380,4)	(7,3)	(-16,1)	(-9,6)	(26,1)	(287,1)	(1,3)	(162,3)	(36,1)	
L1D -361>	(1,6)	(0,21)	(360,8)	(185,1)	(-7,1)	(210,1)	(336,1)	(362,5)	(163,1)	(215,1)	(168,1)	(361,7)	(119,1)	(7,4)	(-35,1)	(3,1)	
L1D -360>	(-7,106)	(-18,1)	(353,23)	(-54,3)	(7,127)	(367,50)	(356,1)	(359,7)	(8,1)	(0,23)	(361,4)	(9,1)	(360,20)	(-79,1)	(425,1)	(1,1)	
L1D -359>	(358,8)	(0,22)	(27,1)	(1,4)	(359,6)	(79,1)	(169,1)	(7,5)	(360,6)	(166,1)	(298,1)	(44,1)	(-16,1)	(18,1)	(188,1)	(208,1)	
L1D -358>	(7,127)	(0,1)	(304,1)	(-90,1)	(359,0)	(351,2)	(189,0)	(190,0)	(252,0)	(259,0)	(358,0)	(357,2)	(297,0)	(34,0)	(387,0)	(-63,0)	
L1D -357>	(0,25)	(357,8)	(358,8)	(356,9)	(1,3)	(35,1)	(218,1)	(179,1)	(180,1)	(359,1)	(301,1)	(191,1)	(192,1)	(210,1)	(1,0)	(1,0)	
L1D -356>	(356,8)	(0,22)	(357,5)	(355,15)	(213,1)	(47,1)	(1,4)	(181,1)	(180,1)	(7,5)	(38,1)	(361,1)	(8,1)	(70,1)	(-17,1)	(195,1)	
L1D -355>	(197,1)	(0,32)	(355,6)	(354,8)	(59,1)	(1,5)	(7,1)	(60,1)	(356,6)	(183,1)	(222,1)	(39,1)	(40,1)	(169,1)	(125,1)	(305,1)	
L1D -354>	(0,20)	(353,15)	(214,1)	(354,5)	(89,1)	(61,1)	(1,2)	(340,1)	(184,1)	(355,6)	(7,2)	(-22,1)	(2,1)	(306,1)	(307,1)	(12,1)	
L1D -353>	(-7,90)	(360,60)	(353,21)	(352,7)	(0,13)	(354,4)	(371,1)	(-54,1)	(407,1)	(425,1)	(15,1)	(357,1)	(-61,2)	(72,1)	(-81,1)	(215,1)	
L1D -352>	(0,26)	(1,6)	(216,1)	(351,8)	(96,1)	(72,2)	(68,1)	(226,1)	(227,1)	(352,5)	(7,4)	(353,4)	(-23,1)	(168,1)	(2,1)	(15,1)	
L1D -351>	(351,17)	(0,30)	(7,90)	(-7,89)	(344,31)	(216,1)	(162,1)	(358,44)	(350,4)	(443,2)	(352,3)	(-36,2)	(-43,2)	(1,2)	(304,1)	(307,1)	
L1D -350>	(28,1)	(0,23)	(351,13)	(349,8)	(1,6)	(80,1)	(350,4)	(221,1)	(-70,1)	(186,1)	(227,1)	(189,1)	(190,1)	(7,2)	(41,1)	(70,1)	
L1D -349>	(7,83)	(423,1)	(342,1)	(171,1)	(-90,0)	(349,1)	(72,0)	(-45,0)	(79,0)	(348,0)	(106,0)	(0,1)	(310,0)	(311,0)	(430,0)	(1,0)	
L1D -348>	(217,1)	(348,14)	(0,20)	(349,7)	(347,13)	(1,6)	(56,1)	(92,1)	(54,1)	(172,1)	(191,1)	(232,1)	(7,4)	(70,1)	(2,1)	(365,1)	
L1D -347>	(346,11)	(1,7)	(0,26)	(347,9)	(202,1)	(297,1)	(43,1)	(348,7)	(55,1)	(173,1)	(192,1)	(155,1)	(-26,1)	(172,1)	(170,1)	(3,1)	
L1D -346>	(345,10)	(1,6)	(346,11)	(0,25)	(347,8)	(32,1)	(-7,1)	(90,1)	(56,1)	(-84,1)	(179,1)	(235,1)	(194,1)	(7,7)	(38,1)	(39,1)	
L1D -345>	(345,3)	(344,17)	(7,2)	(0,23)	(1,4)	(66,1)	(102,1)	(-1,1)	(347,1)	(346,7)	(196,1)	(173,1)	(171,1)	(133,1)	(313,1)	(2,1)	
L1D -344>	(343,7)	(-7,120)	(345,5)	(0,27)	(351,76)	(344,26)	(290,2)	(219,1)	(-36,2)	(68,1)	(389,1)	(324,1)	(162,1)	(479,1)	(486,1)	(252,5)	
L1D -343>	(342,14)	(0,18)	(171,1)	(343,8)	(69,1)	(106,1)	(105,1)	(344,9)	(199,1)	(200,1)	(201,1)	(1,1)	(81,1)	(82,1)	(42,1)	(43,1)	
L1D -342>	(-7,98)	(7,83)	(194,2)	(349,44)	(0,26)	(416,1)	(335,19)	(164,1)	(343,1)	(342,19)	(9,3)	(-90,2)	(44,1)	(11,2)	(341,6)	(45,1)	
L1D -341>	(177,2)	(0,31)	(340,14)	(220,1)	(342,6)	(1,4)	(341,7)	(105,1)	(238,1)	(7,3)	(477,1)	(47,1)	(178,1)	(136,1)	(369,1)	(46,2)	
L1D -340>	(43,1)	(7,88)	(162,1)	(324,1)	(36,0)	(333,2)	(135,0)	(340,0)	(212,0)	(339,0)	(221,0)	(-19,0)	(423,0)	(341,0)	(1,0)	(-54,0)	
L1D -339>	(7,2)	(338,14)	(1,8)	(200,1)	(92,1)	(0,24)	(339,10)	(112,1)	(204,1)	(205,1)	(340,3)	(139,1)	(85,1)	(-16,1)	(2,1)	(216,1)	
L1D -338>	(337,17)	(0,24)	(339,3)	(7,4)	(225,1)	(338,5)	(65,1)	(188,1)	(239,1)	(-89,1)	(1,3)	(49,1)	(180,1)	(141,1)	(142,1)	(50,1)	
L1D -337>	(336,12)	(1,4)	(7,2)	(0,28)	(338,7)	(-17,1)	(337,6)	(114,1)	(359,1)	(205,1)	(52,1)	(74,1)	(67,1)	(53,1)	(54,1)	(49,1)	
L1D -336>	(0,30)	(336,9)	(225,1)	(335,11)	(1,3)	(360,1)	(337,7)	(205,1)	(24,1)	(177,1)	(144,1)	(59,1)	(60,1)	(-47,1)	(86,1)	(53,1)	
L1D -335>	(-7,77)	(334,6)	(342,49)	(335,21)	(0,21)	(-115,1)	(324,1)	(47,1)	(56,1)	(1,1)	(65,2)	(227,1)	(7,1)	(336,4)	(8,1)	(171,0)	
L1D -334>	(0,26)	(227,1)	(125,1)	(335,7)	(333,15)	(334,6)	(1,5)	(119,1)	(2,1)	(191,1)	(217,1)	(218,1)	(7,4)	(54,1)	(178,1)	(-67,1)	
L1D -333>	(0,16)	(7,56)	(-7,100)	(-88,1)	(332,4)	(340,39)	(335,1)	(333,13)	(171,1)	(29,2)	(254,2)	(324,1)	(334,1)	(326,22)	(261,1)	(452,1)	
L1D -332>	(228,1)	(0,27)	(331,13)	(333,15)	(332,10)	(2,1)	(62,1)	(63,1)	(121,1)	(1,6)	(363,1)	(7,2)	(150,1)	(151,1)	(222,1)	(82,1)	
L1D -331>	(7,79)	(333,1)	(-18,0)	(324,1)	(13,0)	(14,0)	(412,0)	(0,1)	(91,0)	(133,0)	(330,0)	(162,0)	(331,0)	(81,0)	(187,0)	(295,0)	
L1D -330>	(330,10)	(0,32)	(329,16)	(331,9)	(234,1)	(1,4)	(77,1)	(106,1)	(224,1)	(225,1)	(7,4)	(-33,1)	(56,1)	(184,1)	(153,1)	(325,1)	
L1D -329>	(1,5)	(0,26)	(328,12)	(7,5)	(330,9)	(329,3)	(17,1)	(-2,1)	(-92,1)	(244,1)	(182,1)	(326,1)	(327,1)	(86,1)	(234,1)	(235,1)	
L1D -328>	(0,30)	(327,13)	(329,9)	(1,5)	(328,9)	(19,1)	(108,1)	(-130,1)	(246,1)	(247,1)	(7,1)	(2,1)	(155,1)	(87,1)	(88,1)	(93,1)	
L1D -327>	(0,29)	(236,1)	(209,1)	(210,1)	(327,5)	(328,7)	(1,10)	(205,1)	(326,12)	(5,1)	(83,1)	(176,1)	(207,1)	(-71,1)	(156,1)	(157,1)	
L1D -326>	(326,17)	(0,15)	(-7,66)	(242,0)	(325,6)	(333,44)	(327,0)	(164,0)	(324,1)	(1,0)	(189,0)	(29,1)	(36,1)	(416,0)	(72,1)	(92,0)	
L1D -325>	(0,36)	(325,5)	(324,14)	(79,1)	(1,5)	(326,8)	(7,1)	(-34,1)	(63,1)	(81,2)	(190,1)	(2,1)	(237,1)	(1,0)	(1,0)	(1,0)	
L1D -324>	(74,5)	(-7,108)	(7,100)	(0,20)	(-25,1)	(-117,1)	(331,37)	(-90,1)	(-151,1)	(-18,2)	(323,5)	(97,1)	(317,21)	(324,13)	(306,2)	(326,2)	
L1D -323>	(238,1)	(0,24)	(1,7)	(323,14)	(220,1)	(175,1)	(37,1)	(324,7)	(322,17)	(128,1)	(219,1)	(248,1)	(-95,1)	(235,1)	(236,1)	(85,1)	
L1D -322>	(-117,1)	(63,0)	(7,90)	(27,0)	(321,2)	(322,1)	(270,0)	(89,0)	(315,0)	(0,0)	(241,0)	(237,0)	(238,0)	(18,0)	(106,0)	(71,0)	
L1D -321>	(0,32)	(321,7)	(320,17)	(214,1)	(27,1)	(1,9)	(322,7)	(240,1)	(241,1)	(7,2)	(-37,1)	(5,1)	(106,1)	(107,1)	(90,1)	(91,1)	
L1D -320>	(194,2)	(0,29)	(319,13)	(1,7)	(320,9)	(95,1)	(321,10)	(53,1)	(425,1)	(161,2)	(130,1)	(88,1)	(229,1)	(138,1)	(70,1)	(7,1)	
L1D -319>	(319,8)	(0,16)	(318,12)	(248,1)	(1,4)	(29,1)	(320,8)	(73,1)	(5,1)	(-158,1)	(89,1)	(117,1)	(186,1)	(164,1)	(165,1)	(6,1)	
L1D -318>	(317,18)	(0,24)	(318,11)	(1,6)	(23,1)	(-28,1)	(319,7)	(85,1)	(11,1)	(131,1)	(242,1)	(7,1)	(333,1)	(9,1)	(10,1)	(249,1)	
L1D -317>	(-7,85)	(0,12)	(317,15)	(324,60)	(249,1)	(245,1)	(7,1)	(306,0)	(146,0)	(-90,0)	(1,1)	(316,5)	(81,1)	(326,1)	(74,0)	(318,1)	
L1D -316>	(0,37)	(316,15)	(1,9)	(315,12)	(317,7)	(26,1)	(39,1)	(137,1)	(215,1)	(253,1)	(-99,1)	(245,1)	(246,1)	(7,4)	(73,1)	(188,1)	
L1D -315>	(-7,82)	(0,20)	(315,12)	(7,103)	(-117,1)	(314,6)	(316,1)	(308,17)	(322,25)	(56,1)	(250,1)	(243,1)	(244,1)	(-60,1)	(487,1)	(-124,0)	
L1D -314>	(313,20)	(315,8)	(0,24)	(7,1)	(223,1)	(228,1)	(90,1)	(143,1)	(314,7)	(1,4)	(5,1)	(36,1)	(138,1)	(104,1)	(178,1)	(-7,1)	
L1D -313>	(7,107)	(306,1)	(45,1)	(178,1)	(324,1)	(378,0)	(312,2)	(313,1)	(0,2)	(209,0)	(1,0)	(-138,0)	(331,0)	(255,0)	(171,0)	(234,0)	
L1D -312>	(311,13)	(0,26)	(1,11)	(313,9)	(27,1)	(312,16)	(391,1)	(107,1)	(7,3)	(180,1)	(181,1)	(-123,1)	(-36,1)	(137,1)	(138,1)	(245,1)	
L1D -311>	(0,20)	(1,10)	(311,11)	(-18,1)	(310,12)	(236,1)	(312,10)	(78,1)	(257,1)	(258,1)	(-25,1)	(249,1)	(250,1)	(7,5)	(75,1)	(-58,1)	
L1D -310>	(310,14)	(0,32)	(1,3)	(29,1)	(311,11)	(32,1)	(206,1)	(-61,1)	(309,7)	(4,1)	(109,1)	(244,1)	(7,3)	(207,1)	(349,1)	(151,1)	
L1D -309>	(0,28)	(308,19)	(309,7)	(310,7)	(38,1)	(148,1)	(83,1)	(7,3)	(182,1)	(1,6)	(180,1)	(245,1)	(260,1)	(250,1)	(307,2)	(313,1)	
L1D -308>	(-7,106)	(0,24)	(1,3)	(307,6)	(308,25)	(315,44)	(309,4)	(40,1)	(20,1)	(21,1)	(353,1)	(152,1)	(-61,1)	(261,1)	(247,1)	(39,1)	
L1D -307>	(0,30)	(307,13)	(306,16)	(1,7)	(239,1)	(308,8)	(150,1)	(185,1)	(7,2)	(5,1)	(2,1)	(101,1)	(262,1)	(263,1)	(43,1)	(44,1)	
L1D -306>	(7,54)	(-7,65)	(74,1)	(305,5)	(164,5)	(313,27)	(299,10)	(0,12)	(398,2)	(72,2)	(306,8)	(2,1)	(171,3)	(45,0)	(1,2)	(309,0)	
L1D -305>	(0,30)	(47,1)	(1,3)	(304,15)	(2,1)	(305,12)	(306,5)	(97,1)	(147,1)	(36,1)	(258,1)	(259,1)	(7,1)	(303,1)	(356,1)	(169,1)	
L1D -304>	(79,0)	(286,1)	(48,0)	(7,85)	(-36,1)	(1,0)	(49,0)	(171,2)	(297,0)	(288,0)	(304,0)	(303,0)	(358,0)	(279,0)	(-29,0)	(72,0)	
L1D -303>	(302,16)	(303,15)	(304,9)	(0,33)	(1,5)	(171,1)	(255,1)	(152,2)	(7,8)	(2,1)	(22,1)	(101,1)	(232,1)	(-107,1)	(259,1)	(9,1)	
L1D -302>	(0,25)	(49,1)	(301,17)	(302,18)	(1,8)	(303,9)	(100,1)	(10,1)	(16,1)	(153,1)	(3,2)	(235,1)	(39,1)	(262,1)	(263,1)	(7,2)	
L1D -301>	(301,12)	(0,23)	(52,1)	(300,15)	(1,8)	(191,1)	(17,1)	(24,1)	(5,1)	(254,1)	(-143,1)	(266,1)	(-27,1)	(302,5)	(7,2)	(-45,1)	
L1D -300>	(299,15)	(0,32)	(300,10)	(301,7)	(230,1)	(192,1)	(1,4)	(10,1)	(267,1)	(-59,1)	(94,1)	(24,1)	(177,1)	(178,1)	(298,1)	(120,1)	
L1D -299>	(-7,71)	(299,19)	(306,49)	(0,13)	(7,5)	(4,1)	(301,1)	(265,1)	(298,5)	(1,1)	(333,1)	(317,1)	(398,1)	(351,0)	(300,2)	(324,1)	
L1D -298>	(0,29)	(299,8)	(298,10)	(7,5)	(55,1)	(297,14)	(-54,1)	(200,1)	(12,1)	(344,1)	(14,1)	(1,3)	(-15,1)	(159,1)	(257,1)	(-28,1)	
L1D -297>	(65,2)	(296,3)	(7,55)	(-7,68)	(0,8)	(297,8)	(304,28)	(-36,1)	(279,1)	(452,1)	(57,0)	(191,0)	(290,9)	(72,0)	(192,0)	(298,1)	
L1D -296>	(-23,1)	(0,38)	(296,9)	(295,12)	(87,1)	(100,1)	(406,1)	(1,3)	(245,1)	(297,8)	(-144,1)	(-112,1)	(277,1)	(162,1)	(197,1)	(362,1)	
L1D -295>	(7,70)	(0,1)	(59,1)	(60,1)	(11,0)	(295,1)	(81,1)	(178,0)	(1,1)	(288,1)	(88,2)	(270,0)	(9,0)	(207,0)	(294,1)	(253,0)	
L1D -294>	(0,35)	(1,6)	(293,15)	(294,16)	(-24,1)	(88,1)	(412,1)	(8,1)	(168,1)	(125,1)	(185,1)	(272,1)	(295,7)	(7,1)	(-7,1)	(-66,1)	
L1D -293>	(293,12)	(0,36)	(1,6)	(294,6)	(62,1)	(292,15)	(15,1)	(176,1)	(186,1)	(-146,1)	(-29,1)	(351,1)	(7,5)	(-48,1)	(103,1)	(202,1)	
L1D -292>	(0,31)	(1,5)	(291,15)	(293,8)	(292,10)	(7,2)	(20,1)	(31,1)	(128,1)	(264,1)	(278,1)	(-160,1)	(83,1)	(204,1)	(205,1)	(-17,1)	
L1D -291>	(290,21)	(0,34)	(291,8)	(7,9)	(19,1)	(36,1)	(163,1)	(-63,1)	(1,8)	(20,1)	(22,1)	(35,1)	(33,2)	(292,8)	(42,1)	(-114,1)	
L1D -290>	(-7,118)	(0,15)	(291,6)	(297,79)	(64,1)	(289,10)	(290,29)	(272,3)	(72,4)	(-70,1)	(-36,1)	(155,1)	(279,3)	(65,1)	(344,2)	(156,1)	
L1D -289>	(0,29)	(288,14)	(289,13)	(-27,1)	(1,7)	(167,1)	(35,1)	(-7,1)	(2,1)	(190,1)	(-147,1)	(274,1)	(290,6)	(-115,1)	(282,1)	(105,1)	
L1D -288>	(-7,113)	(289,5)	(7,98)	(288,16)	(295,56)	(281,1)	(74,6)	(-81,2)	(0,29)	(153,1)	(-90,1)	(-54,2)	(56,1)	(81,4)	(16,1)	(283,1)	
L1D -287>	(74,1)	(0,31)	(286,13)	(287,14)	(288,9)	(1,5)	(-216,1)	(192,1)	(133,1)	(139,1)	(280,1)	(285,1)	(220,2)	(-97,1)	(36,1)	(-51,1)	
L1D -286>	(7,77)	(279,1)	(225,1)	(0,0)	(234,1)	(285,1)	(10,0)	(114,0)	(174,0)	(287,0)	(175,0)	(189,0)	(270,0)	(61,0)	(286,0)	(18,0)	
L1D -285>	(284,23)	(286,11)	(0,28)	(1,6)	(285,10)	(262,1)	(109,1)	(171,1)	(224,1)	(325,1)	(28,1)	(22,1)	(7,3)	(6,1)	(138,1)	(252,1)	
L1D -284>	(283,15)	(284,16)	(0,31)	(76,1)	(1,9)	(23,1)	(277,1)	(47,1)	(285,5)	(7,4)	(-53,1)	(88,1)	(222,1)	(286,1)	(209,1)	(246,1)	
L1D -283>	(0,38)	(284,8)	(282,20)	(7,3)	(283,11)	(78,1)	(1,5)	(10,1)	(40,1)	(195,1)	(255,1)	(-56,1)	(-148,1)	(278,1)	(-32,1)	(288,1)	
L1D -282>	(0,28)	(283,12)	(1,7)	(281,18)	(282,14)	(80,1)	(7,5)	(229,1)	(4,1)	(18,2)	(41,1)	(140,1)	(280,1)	(-94,1)	(148,1)	(285,1)	
L1D -281>	(-7,72)	(280,11)	(281,12)	(1,7)	(288,39)	(0,24)	(335,1)	(180,1)	(265,1)	(185,1)	(81,4)	(74,2)	(282,4)	(7,2)	(38,1)	(35,1)	
L1D -280>	(7,2)	(0,39)	(280,13)	(81,1)	(281,11)	(279,16)	(1,7)	(177,1)	(168,1)	(378,1)	(26,1)	(35,1)	(43,1)	(5,1)	(422,1)	(96,1)	
L1D -279>	(-7,100)	(286,54)	(182,2)	(0,22)	(7,93)	(278,9)	(290,3)	(218,2)	(279,11)	(225,2)	(11,1)	(18,4)	(297,2)	(280,4)	(234,1)	(272,14)	
L1D -278>	(277,23)	(0,29)	(1,5)	(278,8)	(279,7)	(7,3)	(253,1)	(30,1)	(15,1)	(143,1)	(283,1)	(9,1)	(10,1)	(295,1)	(23,1)	(24,1)	
L1D -277>	(7,71)	(-65,1)	(61,0)	(270,1)	(83,0)	(342,0)	(277,0)	(0,0)	(189,0)	(151,0)	(126,0)	(24,0)	(25,0)	(187,0)	(196,0)	(276,0)	
L1D -276>	(275,16)	(0,26)	(1,6)	(90,1)	(276,13)	(183,1)	(255,1)	(34,2)	(63,1)	(-153,1)	(277,8)	(7,8)	(114,1)	(-93,1)	(-209,1)	(46,1)	
L1D -275>	(274,24)	(0,31)	(1,9)	(92,1)	(185,1)	(259,1)	(35,1)	(275,14)	(20,1)	(276,8)	(288,1)	(15,1)	(30,1)	(-102,1)	(380,1)	(-25,1)	
L1D -274>	(0,36)	(1,6)	(274,14)	(275,8)	(288,1)	(411,1)	(273,27)	(9,1)	(-7,1)	(289,1)	(16,1)	(17,1)	(-35,1)	(297,1)	(7,4)	(100,1)	
L1D -273>	(0,32)	(272,22)	(2,2)	(273,15)	(94,1)	(10,1)	(1,8)	(65,1)	(45,1)	(26,1)	(60,1)	(274,6)	(211,1)	(264,1)	(293,1)	(7,6)	
L1D -272>	(271,8)	(-7,74)	(0,16)	(272,24)	(279,48)	(98,1)	(292,1)	(-8,1)	(290,4)	(-16,1)	(1,3)	(11,1)	(317,1)	(7,1)	(273,3)	(297,1)	
L1D -271>	(270,25)	(1,10)	(0,34)	(272,10)	(269,1)	(192,1)	(33,2)	(271,9)	(391,1)	(65,1)	(213,1)	(195,1)	(-12,1)	(34,1)	(7,6)	(-72,1)	
L1D -270>	(277,65)	(7,120)	(-7,126)	(38,4)	(269,9)	(0,35)	(182,5)	(270,17)	(271,4)	(-65,1)	(299,1)	(317,1)	(79,1)	(180,1)	(-36,1)	(263,15)	
L1D -269>	(268,18)	(0,36)	(1,9)	(269,19)	(270,17)	(99,1)	(-27,2)	(79,1)	(31,1)	(291,1)	(7,3)	(153,2)	(-58,1)	(121,1)	(122,1)	(60,1)	
L1D -268>	(-11,1)	(7,107)	(261,2)	(100,1)	(101,1)	(171,1)	(-153,0)	(198,1)	(-130,0)	(296,0)	(15,0)	(178,0)	(0,1)	(6,0)	(1,0)	(1,0)	
L1D -267>	(266,24)	(0,36)	(3,1)	(213,1)	(1,5)	(32,1)	(267,17)	(268,13)	(398,1)	(55,1)	(36,1)	(154,1)	(130,1)	(300,1)	(38,1)	(7,4)	
L1D -266>	(265,20)	(0,43)	(267,11)	(266,15)	(7,3)	(248,1)	(59,1)	(1,11)	(13,1)	(102,2)	(399,1)	(31,1)	(81,1)	(37,1)	(232,2)	(269,1)	
L1D -265>	(265,12)	(0,29)	(266,15)	(264,18)	(1,5)	(106,1)	(79,1)	(43,1)	(85,1)	(272,1)	(33,1)	(205,2)	(-158,1)	(303,1)	(26,1)	(-38,1)	
L1D -264>	(1,4)	(264,17)	(0,36)	(265,11)	(7,6)	(263,16)	(111,1)	(83,1)	(80,1)	(-87,1)	(231,1)	(237,1)	(191,1)	(-128,1)	(165,1)	(213,1)	
L1D -263>	(270,70)	(-7,74)	(263,25)	(264,3)	(0,25)	(180,1)	(380,1)	(262,14)	(1,4)	(-132,1)	(21,1)	(284,1)	(22,1)	(207,1)	(23,1)	(-72,1)	
L1D -262>	(262,16)	(0,40)	(1,7)	(263,11)	(261,15)	(6,2)	(7,4)	(24,1)	(50,1)	(93,1)	(233,1)	(241,1)	(160,1)	(9,1)	(29,1)	(302,1)	
L1D -261>	(261,13)	(-7,79)	(7,70)	(-153,2)	(116,1)	(0,12)	(268,30)	(164,1)	(254,13)	(287,1)	(1,1)	(371,1)	(260,4)	(191,2)	(-18,2)	(-115,1)	
L1D -260>	(1,7)	(0,42)	(259,22)	(260,10)	(118,1)	(215,1)	(30,1)	(173,1)	(94,1)	(252,1)	(220,1)	(310,1)	(261,6)	(55,1)	(7,3)	(8,1)	
L1D -259>	(7,120)	(258,1)	(121,1)	(122,1)	(23,0)	(171,0)	(0,3)	(-45,0)	(291,0)	(259,3)	(27,0)	(231,0)	(351,0)	(360,0)	(260,0)	(1,0)	
L1D -258>	(126,1)	(0,36)	(259,10)	(257,14)	(1,7)	(258,22)	(125,2)	(425,1)	(88,1)	(170,1)	(277,1)	(71,1)	(55,1)	(-136,1)	(305,1)	(63,1)	
L1D -257>	(256,28)	(7,5)	(0,42)	(129,1)	(257,13)	(-68,1)	(428,1)	(93,1)	(95,1)	(1,10)	(258,6)	(239,1)	(32,1)	(2,5)	(233,1)	(-164,1)	
L1D -256>	(256,20)	(0,42)	(257,14)	(1,9)	(255,16)	(44,2)	(136,1)	(96,1)	(64,1)	(35,1)	(4,1)	(307,1)	(430,1)	(127,1)	(-6,1)	(20,1)	
L1D -255>	(0,35)	(254,28)	(255,10)	(32,1)	(1,10)	(130,1)	(10,1)	(-233,1)	(433,1)	(35,1)	(37,1)	(15,1)	(4,1)	(256,9)	(82,1)	(57,1)	
L1D -254>	(0,18)	(-7,118)	(253,11)	(261,73)	(254,33)	(-25,3)	(139,1)	(1,1)	(255,5)	(279,1)	(126,1)	(198,1)	(326,2)	(7,1)	(256,1)	(200,1)	
L1D -253>	(1,7)	(0,41)	(252,25)	(254,10)	(7,3)	(253,14)	(211,1)	(2,2)	(19,1)	(39,1)	(95,1)	(-22,1)	(60,1)	(242,1)	(-3,1)	(42,1)	
L1D -252>	(0,19)	(7,84)	(-7,72)	(245,18)	(353,5)	(1,4)	(259,36)	(252,14)	(251,11)	(344,3)	(-50,1)	(351,3)	(308,1)	(258,1)	(2,1)	(253,5)	
L1D -251>	(250,24)	(0,45)	(7,4)	(252,13)	(1,7)	(251,7)	(140,1)	(-38,1)	(18,1)	(42,2)	(63,1)	(-37,1)	(70,2)	(-11,1)	(51,1)	(304,1)	
L1D -250>	(142,1)	(7,103)	(0,1)	(143,1)	(-74,0)	(-92,0)	(-37,0)	(117,0)	(316,0)	(250,0)	(243,0)	(-9,0)	(302,0)	(1,0)	(249,1)	(-81,2)	
L1D -249>	(0,43)	(249,20)	(250,14)	(248,22)	(317,1)	(20,2)	(1,6)	(18,1)	(-50,1)	(195,1)	(253,1)	(19,1)	(67,1)	(311,1)	(79,1)	(80,1)	
L1D -248>	(1,16)	(247,24)	(0,41)	(144,1)	(249,10)	(64,2)	(248,15)	(58,1)	(21,2)	(2,2)	(20,1)	(7,3)	(94,1)	(-168,1)	(327,1)	(48,1)	
L1D -247>	(247,21)	(0,45)	(246,25)	(248,16)	(1,7)	(7,5)	(-7,3)	(144,1)	(66,1)	(95,1)	(96,1)	(-21,1)	(22,1)	(312,1)	(82,1)	(83,1)	
L1D -246>	(0,56)	(247,17)	(246,17)	(245,26)	(7,4)	(-247,2)	(42,1)	(116,1)	(1,7)	(39,1)	(124,1)	(169,1)	(-14,1)	(153,1)	(179,1)	(12,1)	
L1D -245>	(-7,100)	(7,3)	(252,66)	(244,9)	(353,2)	(246,9)	(0,28)	(245,15)	(164,2)	(314,1)	(344,1)	(9,1)	(1,7)	(-18,1)	(243,1)	(477,1)	
L1D -244>	(243,22)	(0,37)	(1,12)	(323,1)	(15,1)	(2,2)	(244,16)	(446,1)	(41,1)	(113,1)	(128,1)	(366,1)	(122,1)	(182,1)	(74,1)	(245,16)	
L1D -243>	(1,1)	(250,26)	(9,2)	(-7,76)	(29,3)	(242,3)	(0,20)	(7,44)	(243,10)	(2,2)	(430,1)	(236,12)	(8,1)	(244,5)	(-81,1)	(148,1)	
L1D -242>	(151,1)	(0,43)	(243,17)	(241,19)	(1,6)	(242,14)	(10,1)	(8,1)	(67,1)	(-74,2)	(7,3)	(50,1)	(133,1)	(80,1)	(183,1)	(252,1)	
L1D -241>	(7,99)	(242,1)	(240,1)	(182,1)	(154,1)	(155,1)	(234,1)	(241,3)	(-72,0)	(1,1)	(-22,0)	(-120,0)	(252,0)	(-9,5)	(0,2)	(-4,0)	
L1D -240>	(239,19)	(0,57)	(241,14)	(7,8)	(185,1)	(120,1)	(240,15)	(12,1)	(1,9)	(22,1)	(38,1)	(463,1)	(136,1)	(28,1)	(-85,1)	(337,1)	
L1D -239>	(0,51)	(238,21)	(239,26)	(1,8)	(156,1)	(240,17)	(9,2)	(39,1)	(464,1)	(44,1)	(142,1)	(7,5)	(84,1)	(81,1)	(16,2)	(199,1)	
L1D -238>	(238,18)	(0,59)	(1,13)	(237,19)	(239,20)	(162,1)	(7,1)	(40,2)	(200,1)	(79,1)	(142,1)	(314,1)	(341,1)	(-27,1)	(31,1)	(-239,1)	
L1D -237>	(0,58)	(1,6)	(7,2)	(237,16)	(163,1)	(236,23)	(11,1)	(238,16)	(145,1)	(195,1)	(13,1)	(80,1)	(142,1)	(33,1)	(34,1)	(74,2)	
L1D -236>	(1,2)	(243,49)	(235,12)	(237,9)	(-7,81)	(0,21)	(117,2)	(236,14)	(-81,1)	(50,1)	(10,1)	(110,1)	(107,0)	(9,3)	(108,0)	(2,3)	
L1D -235>	(-24,1)	(0,51)	(236,17)	(72,2)	(235,15)	(30,2)	(234,23)	(17,1)	(52,1)	(87,1)	(1,8)	(260,1)	(15,1)	(47,1)	(85,1)	(-15,1)	
L1D -234>	(7,112)	(241,48)	(234,30)	(0,45)	(-16,3)	(-7,122)	(-9,8)	(272,12)	(235,8)	(-72,2)	(233,11)	(163,1)	(-6,1)	(227,27)	(13,2)	(11,1)	
L1D -233>	(0,46)	(234,16)	(189,1)	(232,27)	(32,1)	(233,21)	(54,1)	(71,1)	(19,1)	(1,9)	(41,1)	(141,2)	(137,1)	(261,1)	(17,1)	(2,2)	
L1D -232>	(126,1)	(7,96)	(-38,0)	(-72,0)	(0,1)	(153,0)	(225,0)	(274,0)	(48,0)	(49,0)	(144,0)	(232,3)	(279,0)	(233,0)	(-8,0)	(231,3)	
L1D -231>	(230,31)	(0,46)	(231,16)	(1,9)	(232,17)	(7,2)	(165,1)	(42,1)	(68,1)	(140,1)	(215,1)	(-107,1)	(263,1)	(2,2)	(13,1)	(166,1)	
L1D -230>	(230,21)	(0,54)	(7,2)	(229,29)	(-63,1)	(1,6)	(54,1)	(231,19)	(167,1)	(-31,1)	(68,1)	(69,1)	(44,1)	(45,1)	(-151,1)	(-72,2)	
L1D -229>	(0,60)	(229,15)	(230,14)	(406,1)	(59,1)	(228,31)	(1,7)	(133,1)	(-39,1)	(74,1)	(162,1)	(15,1)	(64,2)	(116,1)	(342,1)	(349,1)	
L1D -228>	(7,6)	(227,31)	(0,48)	(229,16)	(228,19)	(-29,1)	(-32,2)	(20,1)	(82,2)	(6,1)	(-82,1)	(282,1)	(49,1)	(56,1)	(1,7)	(76,1)	
L1D -227>	(226,12)	(-7,86)	(-79,1)	(227,22)	(234,44)	(131,1)	(29,1)	(0,36)	(148,1)	(23,1)	(272,2)	(228,11)	(-16,1)	(20,1)	(-9,3)	(-44,1)	
L1D -226>	(167,1)	(225,32)	(0,52)	(1,12)	(148,1)	(226,15)	(24,1)	(242,1)	(78,1)	(97,1)	(2,1)	(181,1)	(17,1)	(201,1)	(113,1)	(227,20)	
L1D -225>	(218,9)	(194,1)	(232,27)	(-7,75)	(0,13)	(7,64)	(-65,1)	(226,6)	(224,6)	(144,1)	(169,1)	(-72,1)	(225,6)	(-19,0)	(126,1)	(272,0)	
L1D -224>	(0,52)	(223,26)	(7,4)	(224,8)	(1,4)	(225,22)	(198,1)	(55,1)	(168,1)	(89,2)	(117,2)	(51,1)	(74,1)	(50,1)	(330,1)	(140,1)	
L1D -223>	(223,6)	(7,109)	(36,1)	(28,1)	(224,4)	(29,1)	(0,5)	(195,1)	(216,1)	(222,5)	(162,2)	(170,1)	(169,1)	(87,0)	(-11,1)	(49,0)	
L1D -222>	(221,28)	(7,3)	(0,49)	(223,20)	(1,11)	(222,15)	(339,1)	(-44,1)	(89,1)	(137,1)	(172,1)	(29,1)	(90,1)	(198,1)	(356,1)	(55,1)	
L1D -221>	(1,6)	(0,63)	(221,28)	(220,28)	(172,1)	(26,1)	(222,15)	(493,1)	(81,1)	(155,1)	(106,1)	(31,1)	(-1,1)	(2,1)	(64,1)	(-179,1)	
L1D -220>	(178,1)	(0,66)	(220,12)	(322,1)	(4,2)	(45,1)	(219,20)	(1,13)	(494,1)	(156,1)	(158,1)	(181,1)	(34,2)	(93,1)	(204,1)	(221,14)	
L1D -219>	(220,16)	(0,57)	(1,8)	(7,8)	(219,19)	(218,26)	(180,1)	(495,1)	(217,1)	(182,1)	(4,1)	(37,1)	(130,1)	(-180,1)	(158,1)	(159,1)	
L1D -218>	(218,23)	(-70,1)	(-7,104)	(0,23)	(1,3)	(17,1)	(169,1)	(225,52)	(219,7)	(170,1)	(64,1)	(217,12)	(65,1)	(36,1)	(272,3)	(7,4)	
L1D -217>	(216,22)	(0,65)	(1,7)	(218,19)	(180,1)	(49,2)	(67,1)	(217,15)	(21,1)	(93,2)	(253,1)	(41,1)	(66,1)	(108,1)	(42,1)	(208,1)	
L1D -216>	(-7,114)	(7,69)	(-196,2)	(155,6)	(299,2)	(461,2)	(216,20)	(209,10)	(183,1)	(0,30)	(223,38)	(27,1)	(215,22)	(217,18)	(162,2)	(-72,1)	
L1D -215>	(-37,1)	(0,53)	(1,13)	(215,13)	(71,2)	(57,1)	(76,1)	(214,26)	(23,1)	(216,23)	(21,1)	(116,1)	(-30,1)	(24,1)	(15,2)	(134,1)	
L1D -214>	(1,1)	(-81,1)	(7,112)	(376,1)	(73,0)	(-180,0)	(40,0)	(215,0)	(41,0)	(54,1)	(0,1)	(126,0)	(207,1)	(268,0)	(213,3)	(214,2)	
L1D -213>	(185,1)	(213,13)	(212,31)	(0,52)	(214,24)	(31,2)	(32,1)	(1,6)	(37,1)	(62,1)	(172,3)	(22,1)	(-67,1)	(49,1)	(26,2)	(200,1)	
L1D -212>	(91,2)	(185,1)	(0,63)	(93,1)	(213,19)	(2,2)	(38,1)	(1,9)	(97,1)	(49,1)	(44,1)	(7,2)	(211,21)	(212,12)	(99,1)	(22,2)	
L1D -211>	(0,46)	(212,21)	(210,29)	(188,1)	(211,19)	(40,1)	(108,1)	(146,1)	(73,1)	(-41,1)	(101,1)	(177,1)	(205,1)	(23,2)	(1,7)	(116,1)	
L1D -210>	(209,43)	(0,61)	(210,27)	(211,21)	(7,3)	(190,1)	(111,1)	(48,1)	(52,1)	(147,1)	(73,1)	(1,6)	(206,1)	(-51,1)	(117,1)	(86,1)	
L1D -209>	(216,51)	(162,6)	(-7,99)	(208,25)	(209,23)	(0,35)	(210,12)	(7,2)	(18,1)	(125,1)	(309,1)	(92,1)	(93,1)	(1,4)	(198,1)	(155,1)	
L1D -208>	(207,38)	(0,59)	(1,5)	(209,20)	(7,6)	(46,1)	(160,1)	(113,1)	(51,2)	(208,20)	(262,1)	(106,1)	(119,1)	(216,1)	(204,1)	(324,1)	
L1D -207>	(-7,101)	(7,113)	(1,4)	(200,27)	(214,48)	(0,19)	(-81,2)	(208,10)	(206,12)	(207,13)	(190,1)	(-187,2)	(47,2)	(89,1)	(90,1)	(468,1)	
L1D -206>	(7,2)	(0,54)	(1,8)	(205,25)	(199,1)	(206,19)	(40,1)	(207,23)	(60,1)	(263,1)	(43,1)	(44,1)	(70,1)	(-2,1)	(26,1)	(14,1)	
L1D -205>	(7,65)	(206,1)	(1,0)	(205,1)	(-119,0)	(200,0)	(52,0)	(0,2)	(-77,0)	(-126,0)	(204,0)	(198,0)	(385,0)	(25,0)	(106,0)	(36,0)	
L1D -204>	(0,57)	(7,3)	(201,1)	(1,14)	(98,1)	(204,19)	(102,2)	(203,25)	(92,2)	(317,1)	(78,1)	(205,21)	(62,1)	(57,1)	(48,1)	(135,1)	
L1D -203>	(0,51)	(203,19)	(7,4)	(202,37)	(209,1)	(44,1)	(58,1)	(149,1)	(79,2)	(1,6)	(26,1)	(23,1)	(9,1)	(204,16)	(69,1)	(2,1)	
L1D -202>	(7,3)	(201,27)	(203,24)	(0,60)	(202,26)	(25,1)	(27,1)	(267,1)	(51,1)	(150,1)	(80,2)	(71,1)	(1,7)	(110,1)	(21,1)	(-101,1)	
L1D -201>	(200,32)	(0,55)	(1,19)	(201,15)	(316,2)	(210,1)	(202,19)	(81,2)	(45,1)	(49,1)	(55,1)	(52,1)	(82,2)	(80,1)	(72,1)	(112,2)	
L1D -200>	(1,1)	(-7,77)	(7,1)	(207,45)	(0,18)	(205,1)	(201,6)	(54,0)	(32,1)	(200,17)	(70,0)	(18,0)	(-18,1)	(-64,0)	(199,10)	(56,0)	
L1D -199>	(199,28)	(0,61)	(200,19)	(215,1)	(198,23)	(89,2)	(169,1)	(2,2)	(57,1)	(-98,1)	(1,3)	(7,10)	(36,1)	(238,1)	(342,1)	(108,1)	
L1D -198>	(-7,85)	(7,84)	(198,8)	(191,15)	(199,9)	(371,2)	(205,43)	(0,21)	(317,4)	(407,2)	(-82,1)	(1,2)	(354,1)	(195,1)	(197,14)	(261,1)	
L1D -197>	(196,33)	(0,55)	(1,13)	(197,24)	(7,11)	(222,1)	(126,1)	(155,1)	(198,26)	(91,1)	(14,1)	(242,1)	(11,1)	(24,1)	(-49,1)	(216,1)	
L1D -196>	(7,71)	(3,0)	(0,0)	(270,0)	(1,0)	(18,0)	(151,1)	(144,0)	(25,0)	(197,1)	(189,0)	(196,1)	(195,1)	(160,0)	(115,0)	(286,0)	
L1D -195>	(194,38)	(0,66)	(196,22)	(1,6)	(7,8)	(4,1)	(53,1)	(195,17)	(14,1)	(199,1)	(98,2)	(130,1)	(236,1)	(129,1)	(15,1)	(89,1)	
L1D -194>	(7,3)	(193,23)	(0,65)	(195,16)	(194,21)	(226,1)	(134,1)	(85,1)	(15,1)	(73,2)	(2,2)	(1,6)	(37,1)	(382,1)	(112,1)	(94,1)	
L1D -193>	(193,21)	(192,35)	(0,73)	(1,15)	(194,20)	(7,5)	(-84,1)	(270,1)	(200,1)	(218,1)	(96,1)	(-19,1)	(132,1)	(44,1)	(198,1)	(272,1)	
L1D -192>	(107,1)	(191,40)	(193,20)	(1,10)	(192,21)	(0,56)	(115,1)	(-105,1)	(35,2)	(76,1)	(63,1)	(88,1)	(46,1)	(269,1)	(30,1)	(-75,1)	
L1D -191>	(198,66)	(-7,99)	(192,15)	(191,27)	(0,32)	(190,21)	(254,1)	(-43,1)	(1,3)	(81,1)	(59,1)	(-105,1)	(166,1)	(-117,1)	(7,1)	(188,1)	
L1D -190>	(189,38)	(0,51)	(190,24)	(7,8)	(1,11)	(232,1)	(66,1)	(191,23)	(124,3)	(-3,1)	(27,1)	(37,1)	(11,1)	(43,1)	(19,1)	(10,1)	
L1D -189>	(7,81)	(-7,114)	(210,1)	(11,3)	(0,25)	(272,3)	(261,1)	(263,6)	(190,10)	(196,49)	(182,17)	(189,13)	(188,14)	(144,2)	(146,2)	(153,1)	
L1D -188>	(72,1)	(7,3)	(0,70)	(189,24)	(1,12)	(107,1)	(145,1)	(187,30)	(104,1)	(-141,1)	(188,16)	(36,1)	(64,1)	(83,1)	(62,3)	(34,1)	
L1D -187>	(7,81)	(180,1)	(-144,0)	(72,1)	(188,2)	(211,0)	(144,0)	(171,1)	(178,0)	(186,1)	(97,0)	(0,0)	(252,0)	(187,0)	(-36,0)	(70,0)	
L1D -186>	(8,1)	(186,25)	(0,66)	(185,37)	(143,1)	(-27,1)	(187,27)	(184,1)	(1,7)	(131,1)	(203,1)	(37,1)	(46,3)	(48,1)	(14,1)	(83,1)	
L1D -185>	(0,74)	(186,22)	(212,1)	(185,17)	(184,24)	(-37,1)	(1,13)	(-2,1)	(171,1)	(7,3)	(95,1)	(132,1)	(204,1)	(38,1)	(137,1)	(97,1)	
L1D -184>	(213,1)	(0,77)	(1,12)	(185,23)	(184,21)	(110,1)	(183,28)	(174,1)	(62,1)	(86,1)	(64,1)	(133,1)	(57,1)	(138,1)	(-24,1)	(-36,1)	
L1D -183>	(7,5)	(0,71)	(184,30)	(1,15)	(182,36)	(181,1)	(183,24)	(2,1)	(87,1)	(92,2)	(69,1)	(-1,1)	(4,1)	(101,1)	(6,1)	(150,1)	
L1D -182>	(189,40)	(-7,68)	(153,2)	(182,17)	(0,17)	(7,1)	(183,10)	(144,0)	(1,2)	(181,12)	(263,2)	(-142,0)	(-18,0)	(245,0)	(110,0)	(11,1)	
L1D -181>	(181,26)	(0,76)	(180,35)	(-7,1)	(113,1)	(1,13)	(182,27)	(62,1)	(7,3)	(85,1)	(-2,1)	(73,1)	(-4,1)	(290,1)	(57,1)	(304,1)	
L1D -180>	(-7,75)	(180,13)	(7,69)	(187,32)	(-117,1)	(173,11)	(0,21)	(38,1)	(63,1)	(1,1)	(179,14)	(6,1)	(244,1)	(-191,1)	(380,1)	(181,10)	
L1D -179>	(0,77)	(7,2)	(1,11)	(180,21)	(178,46)	(179,23)	(-6,1)	(85,1)	(97,2)	(89,3)	(10,1)	(-36,1)	(44,1)	(98,1)	(49,1)	(62,1)	
L1D -178>	(7,75)	(-95,0)	(179,1)	(-18,0)	(0,1)	(171,0)	(-162,0)	(34,0)	(61,0)	(180,0)	(121,0)	(178,1)	(-11,0)	(297,0)	(9,0)	(160,0)	
L1D -177>	(176,37)	(0,71)	(177,19)	(1,16)	(178,27)	(220,1)	(179,3)	(22,2)	(98,1)	(-17,1)	(62,1)	(91,1)	(27,1)	(145,2)	(76,1)	(77,1)	
L1D -176>	(0,76)	(177,31)	(176,22)	(175,37)	(7,5)	(91,1)	(61,1)	(1,8)	(28,1)	(146,2)	(88,1)	(82,1)	(159,1)	(33,1)	(326,1)	(35,1)	
L1D -175>	(7,2)	(174,48)	(0,71)	(176,29)	(175,18)	(13,1)	(323,1)	(84,1)	(88,2)	(-101,1)	(183,1)	(9,1)	(1,10)	(148,1)	(149,1)	(160,1)	
L1D -174>	(0,80)	(175,30)	(173,31)	(174,26)	(7,3)	(16,1)	(1,9)	(183,1)	(3,1)	(89,1)	(10,1)	(17,2)	(96,1)	(33,1)	(12,1)	(57,1)	
L1D -173>	(180,97)	(173,34)	(-7,125)	(174,22)	(0,52)	(19,1)	(2,2)	(137,1)	(263,2)	(-45,1)	(153,1)	(9,1)	(5,1)	(101,1)	(1,5)	(172,22)	
L1D -172>	(0,86)	(171,39)	(173,27)	(7,5)	(-261,1)	(191,1)	(6,1)	(86,1)	(172,24)	(1,10)	(41,2)	(-34,1)	(257,1)	(-56,1)	(30,1)	(347,2)	
L1D -171>	(178,46)	(164,16)	(-7,74)	(90,1)	(172,6)	(0,18)	(7,81)	(254,3)	(162,1)	(1,1)	(171,13)	(170,7)	(-18,1)	(9,2)	(299,2)	(187,1)	
L1D -170>	(170,26)	(0,88)	(169,50)	(-8,1)	(171,32)	(92,1)	(197,1)	(1,11)	(102,2)	(91,1)	(285,1)	(2,3)	(112,1)	(21,1)	(106,1)	(42,1)	
L1D -169>	(7,108)	(0,1)	(162,1)	(-100,1)	(225,1)	(170,1)	(-9,1)	(166,1)	(-290,1)	(135,0)	(83,0)	(-36,0)	(1,0)	(-297,0)	(223,0)	(169,1)	
L1D -168>	(167,43)	(168,26)	(0,84)	(102,1)	(1,10)	(169,31)	(112,1)	(95,2)	(10,1)	(159,1)	(114,1)	(104,1)	(79,1)	(109,1)	(58,1)	(96,1)	
L1D -167>	(1,9)	(0,79)	(227,1)	(20,1)	(167,19)	(166,56)	(113,1)	(-320,1)	(48,1)	(168,35)	(107,1)	(96,1)	(100,1)	(59,1)	(86,1)	(23,1)	
L1D -166>	(1,11)	(0,88)	(166,34)	(165,44)	(167,31)	(45,2)	(7,3)	(230,1)	(101,1)	(87,1)	(62,1)	(12,2)	(65,1)	(61,2)	(-143,1)	(27,1)	
L1D -165>	(7,5)	(0,85)	(46,3)	(47,3)	(1,20)	(233,1)	(164,44)	(-1,1)	(166,32)	(-61,1)	(68,1)	(165,28)	(57,1)	(106,1)	(103,1)	(94,1)	
L1D -164>	(171,93)	(-7,124)	(0,26)	(164,35)	(-18,2)	(163,20)	(180,1)	(1,4)	(299,3)	(165,17)	(-9,2)	(7,2)	(42,1)	(43,1)	(261,1)	(254,3)	
L1D -163>	(162,58)	(7,3)	(163,29)	(0,96)	(131,2)	(-103,1)	(141,1)	(164,32)	(14,1)	(1,9)	(21,2)	(71,1)	(6,1)	(315,1)	(126,1)	(120,2)	
L1D -162>	(7,112)	(169,38)	(155,19)	(162,19)	(-7,115)	(209,7)	(333,1)	(0,42)	(163,14)	(216,2)	(-297,1)	(1,4)	(9,1)	(-16,6)	(161,15)	(164,5)	
L1D -161>	(0,82)	(160,39)	(-14,1)	(161,30)	(8,2)	(1,11)	(162,28)	(117,1)	(206,1)	(22,2)	(73,2)	(110,1)	(106,1)	(91,2)	(125,2)	(-70,1)	
L1D -160>	(241,1)	(159,1)	(-54,0)	(7,122)	(-63,0)	(0,4)	(36,0)	(160,1)	(153,0)	(373,0)	(45,2)	(161,2)	(-46,0)	(-17,0)	(421,0)	(1,0)	
L1D -159>	(1,13)	(23,1)	(0,89)	(158,52)	(159,26)	(11,1)	(160,32)	(119,1)	(26,3)	(51,1)	(69,2)	(-77,1)	(76,1)	(111,1)	(108,1)	(63,1)	
L1D -158>	(7,2)	(0,100)	(157,53)	(158,36)	(52,1)	(2,1)	(70,1)	(168,1)	(159,41)	(299,1)	(64,1)	(1,14)	(10,1)	(141,1)	(81,2)	(142,1)	
L1D -157>	(7,1)	(76,1)	(1,14)	(0,96)	(158,33)	(157,29)	(-62,1)	(156,53)	(212,2)	(53,1)	(29,2)	(9,1)	(11,2)	(118,3)	(102,1)	(82,1)	
L1D -156>	(156,22)	(7,6)	(0,93)	(155,52)	(112,1)	(1,19)	(157,33)	(153,1)	(116,1)	(32,1)	(141,1)	(99,2)	(104,1)	(31,3)	(25,1)	(119,1)	
L1D -155>	(0,22)	(162,34)	(-7,67)	(7,3)	(154,11)	(333,1)	(155,16)	(1,2)	(156,8)	(43,0)	(209,2)	(-153,0)	(-47,1)	(-41,0)	(8,0)	(26,0)	
L1D -154>	(0,102)	(154,26)	(7,8)	(19,3)	(1,11)	(165,2)	(153,46)	(155,34)	(241,1)	(117,1)	(114,1)	(197,1)	(22,1)	(-22,1)	(146,1)	(12,1)	
L1D -153>	(7,106)	(-7,123)	(152,16)	(0,39)	(407,3)	(471,2)	(153,16)	(38,3)	(154,17)	(-38,1)	(-61,3)	(146,18)	(45,2)	(225,1)	(160,73)	(182,12)	
L1D -152>	(151,51)	(0,102)	(143,2)	(152,33)	(7,2)	(138,1)	(177,1)	(157,1)	(153,40)	(1,19)	(79,1)	(12,1)	(59,1)	(71,1)	(2,3)	(69,1)	
L1D -151>	(7,73)	(52,0)	(180,1)	(150,3)	(144,1)	(0,3)	(26,0)	(225,0)	(189,0)	(151,1)	(114,0)	(-61,0)	(9,0)	(10,0)	(152,3)	(126,1)	
L1D -150>	(1,7)	(150,31)	(0,95)	(9,2)	(149,54)	(151,39)	(113,2)	(7,2)	(3,2)	(-3,1)	(216,1)	(11,4)	(13,1)	(90,1)	(69,1)	(-21,2)	
L1D -149>	(148,48)	(0,114)	(149,32)	(7,5)	(1,15)	(150,39)	(13,1)	(14,2)	(91,1)	(307,1)	(126,1)	(202,1)	(45,1)	(12,2)	(53,3)	(110,2)	
L1D -148>	(1,17)	(0,90)	(149,23)	(148,24)	(147,53)	(244,1)	(104,1)	(225,1)	(63,1)	(308,1)	(14,2)	(318,1)	(152,1)	(7,6)	(-67,2)	(55,1)	
L1D -147>	(1,10)	(43,3)	(147,24)	(0,84)	(148,27)	(14,2)	(146,52)	(9,1)	(226,1)	(59,1)	(75,1)	(109,1)	(131,2)	(209,1)	(46,1)	(-7,1)	
L1D -146>	(-7,87)	(0,23)	(146,19)	(-54,1)	(153,58)	(1,1)	(55,1)	(5,1)	(20,1)	(21,1)	(147,13)	(92,1)	(182,3)	(145,11)	(165,1)	(45,4)	
L1D -145>	(0,108)	(144,45)	(246,1)	(145,25)	(129,1)	(1,21)	(106,1)	(39,1)	(184,1)	(111,1)	(146,32)	(51,1)	(119,1)	(47,1)	(176,2)	(14,1)	
L1D -144>	(7,82)	(-7,83)	(144,21)	(151,37)	(145,18)	(173,2)	(126,1)	(143,19)	(137,16)	(1,2)	(189,1)	(119,2)	(135,1)	(-6,1)	(0,37)	(16,1)	
L1D -143>	(1,13)	(7,4)	(142,65)	(0,97)	(143,24)	(5,1)	(12,2)	(14,2)	(144,39)	(213,1)	(18,1)	(2,1)	(17,1)	(10,1)	(8,1)	(145,2)	
L1D -142>	(7,70)	(143,2)	(142,2)	(30,0)	(0,2)	(250,0)	(459,0)	(1,1)	(61,0)	(62,0)	(20,0)	(-171,0)	(124,0)	(135,1)	(141,2)	(-54,0)	
L1D -141>	(0,101)	(142,32)	(7,4)	(140,60)	(141,29)	(1,20)	(36,2)	(133,2)	(139,1)	(68,1)	(132,1)	(320,1)	(20,1)	(215,1)	(46,2)	(61,2)	
L1D -140>	(140,37)	(0,92)	(7,6)	(139,55)	(141,37)	(6,1)	(109,2)	(67,1)	(71,2)	(1,17)	(22,1)	(23,1)	(48,1)	(63,2)	(159,1)	(81,1)	
L1D -139>	(0,100)	(7,3)	(127,1)	(138,58)	(139,29)	(140,36)	(16,1)	(1,12)	(141,1)	(21,2)	(137,1)	(68,2)	(120,1)	(17,2)	(321,1)	(23,1)	
L1D -138>	(0,106)	(138,37)	(137,50)	(1,18)	(7,4)	(-23,1)	(-13,1)	(139,35)	(121,1)	(90,1)	(20,1)	(35,2)	(65,1)	(46,1)	(22,1)	(70,1)	
L1D -137>	(144,82)	(-7,99)	(189,2)	(137,29)	(7,2)	(-6,1)	(111,1)	(0,44)	(138,19)	(244,1)	(1,4)	(227,1)	(136,30)	(294,1)	(-37,1)	(398,1)	
L1D -136>	(0,118)	(135,61)	(136,36)	(17,6)	(7,2)	(1,22)	(22,1)	(137,33)	(329,1)	(222,1)	(66,2)	(274,1)	(54,1)	(27,1)	(26,1)	(35,1)	
L1D -135>	(142,55)	(-14,1)	(-7,112)	(7,101)	(-164,3)	(0,50)	(506,4)	(126,1)	(1,6)	(134,26)	(135,16)	(136,21)	(-178,2)	(128,16)	(58,1)	(74,1)	
L1D -134>	(0,103)	(67,2)	(2,6)	(1,10)	(135,40)	(133,64)	(16,1)	(29,2)	(134,32)	(73,1)	(247,1)	(-19,1)	(3,1)	(97,1)	(9,1)	(11,1)	
L1D -133>	(-7,1)	(7,117)	(-171,2)	(132,2)	(2,1)	(126,3)	(0,2)	(-164,1)	(468,1)	(134,2)	(133,1)	(1,0)	(-110,0)	(-108,0)	(175,0)	(19,0)	
L1D -132>	(1,18)	(0,104)	(434,2)	(133,48)	(15,2)	(131,67)	(132,33)	(142,2)	(24,2)	(7,3)	(9,1)	(89,2)	(16,2)	(99,1)	(229,1)	(66,2)	
L1D -131>	(0,101)	(7,4)	(1,16)	(132,46)	(130,68)	(131,34)	(2,1)	(54,1)	(23,2)	(91,1)	(17,2)	(146,1)	(144,1)	(230,1)	(79,1)	(29,3)	
L1D -130>	(0,111)	(129,66)	(130,30)	(1,18)	(-3,1)	(22,1)	(131,46)	(30,3)	(88,1)	(254,1)	(56,1)	(18,2)	(2,2)	(102,1)	(14,1)	(21,1)	
L1D -129>	(0,71)	(130,21)	(128,30)	(7,2)	(1,6)	(129,17)	(36,1)	(31,1)	(4,1)	(12,1)	(5,1)	(-56,0)	(30,0)	(8,0)	(103,0)	(143,0)	
L1D -128>	(0,62)	(135,74)	(127,44)	(506,2)	(-7,112)	(128,33)	(1,9)	(425,2)	(7,3)	(-8,1)	(144,1)	(129,27)	(38,2)	(39,1)	(99,1)	(227,1)	
L1D -127>	(1,10)	(126,65)	(7,12)	(0,116)	(127,41)	(-8,1)	(128,41)	(-6,1)	(-13,1)	(117,1)	(-129,1)	(59,1)	(-15,1)	(107,1)	(8,1)	(36,1)	
L1D -126>	(7,86)	(-7,92)	(133,52)	(127,15)	(-178,2)	(0,29)	(13,1)	(-219,1)	(119,15)	(125,16)	(174,1)	(35,1)	(126,16)	(-124,2)	(1,2)	(141,1)	
L1D -125>	(7,5)	(124,64)	(0,122)	(126,44)	(14,1)	(177,1)	(54,1)	(335,1)	(125,30)	(257,1)	(-62,1)	(78,1)	(93,1)	(41,2)	(150,1)	(30,1)	
L1D -124>	(7,89)	(1,1)	(-27,0)	(-5,0)	(46,0)	(-36,0)	(0,4)	(144,0)	(54,0)	(-56,0)	(-63,0)	(124,1)	(-270,0)	(-126,0)	(123,3)	(125,2)	
L1D -123>	(0,115)	(123,35)	(7,8)	(2,2)	(8,1)	(211,1)	(122,58)	(124,44)	(35,1)	(1,18)	(119,1)	(91,1)	(67,1)	(29,1)	(39,1)	(49,3)	
L1D -122>	(0,113)	(123,39)	(121,68)	(7,11)	(16,1)	(21,1)	(1,17)	(93,1)	(94,1)	(122,27)	(2,3)	(23,2)	(40,2)	(41,2)	(18,2)	(331,1)	
L1D -121>	(0,120)	(121,42)	(120,73)	(122,34)	(7,6)	(1,11)	(9,1)	(-40,1)	(23,1)	(94,1)	(265,1)	(8,2)	(25,2)	(41,1)	(86,2)	(119,1)	
L1D -120>	(119,64)	(0,118)	(16,2)	(120,44)	(1,19)	(-10,1)	(121,37)	(240,2)	(27,1)	(30,1)	(101,1)	(267,1)	(73,1)	(138,1)	(88,1)	(7,3)	
L1D -119>	(-7,114)	(0,40)	(120,24)	(20,1)	(74,1)	(126,81)	(-124,1)	(1,6)	(118,25)	(43,2)	(119,27)	(21,1)	(-6,1)	(76,1)	(77,1)	(144,3)	
L1D -118>	(118,50)	(0,118)	(7,7)	(-11,1)	(117,56)	(1,13)	(50,2)	(51,2)	(159,1)	(39,2)	(25,2)	(123,1)	(14,3)	(-133,1)	(119,34)	(98,1)	
L1D -117>	(-7,100)	(117,15)	(0,33)	(7,89)	(124,63)	(116,22)	(21,1)	(16,1)	(-16,1)	(1,2)	(110,13)	(-70,4)	(203,1)	(4,1)	(-61,1)	(118,21)	
L1D -116>	(1,25)	(0,126)	(115,59)	(116,46)	(40,3)	(117,36)	(7,7)	(112,2)	(-13,1)	(-3,1)	(3,2)	(96,2)	(272,1)	(42,2)	(100,1)	(245,1)	
L1D -115>	(7,124)	(0,7)	(-29,1)	(1,1)	(22,1)	(99,0)	(106,0)	(-73,0)	(46,0)	(81,0)	(-52,0)	(115,5)	(116,4)	(-45,4)	(114,4)	(108,1)	
L1D -114>	(0,74)	(113,42)	(114,25)	(23,2)	(24,1)	(115,21)	(62,1)	(1,11)	(52,1)	(60,1)	(206,1)	(-12,1)	(-3,1)	(10,1)	(11,1)	(304,1)	
L1D -113>	(7,1)	(0,65)	(112,36)	(-36,1)	(1,9)	(113,17)	(25,1)	(26,1)	(197,0)	(64,1)	(114,19)	(42,0)	(129,0)	(70,0)	(17,0)	(14,1)	
L1D -112>	(0,125)	(112,42)	(111,89)	(7,5)	(12,1)	(1,15)	(56,4)	(113,52)	(65,1)	(167,1)	(2,3)	(44,1)	(28,2)	(9,1)	(208,1)	(144,1)	
L1D -111>	(0,69)	(110,43)	(7,4)	(20,1)	(112,23)	(111,17)	(190,1)	(3,1)	(1,7)	(-24,1)	(27,1)	(-79,1)	(159,1)	(8,1)	(-31,1)	(25,1)	
L1D -110>	(117,75)	(110,44)	(0,49)	(109,39)	(26,1)	(-268,2)	(-7,126)	(92,2)	(-273,1)	(111,28)	(7,3)	(183,1)	(15,1)	(73,1)	(155,1)	(29,1)	
L1D -109>	(108,52)	(0,81)	(109,28)	(28,1)	(1,13)	(184,1)	(13,1)	(48,1)	(110,38)	(47,1)	(-12,1)	(-25,1)	(30,1)	(-11,1)	(15,2)	(11,1)	
L1D -108>	(-7,91)	(115,62)	(7,80)	(107,31)	(0,38)	(101,18)	(92,2)	(108,23)	(1,6)	(109,30)	(13,2)	(28,1)	(11,1)	(-52,3)	(-45,8)	(99,2)	
L1D -107>	(0,85)	(106,44)	(60,1)	(7,4)	(1,7)	(108,32)	(107,21)	(8,1)	(9,1)	(-23,1)	(39,1)	(44,1)	(109,1)	(53,1)	(36,1)	(-139,1)	
L1D -106>	(7,65)	(0,2)	(107,2)	(18,1)	(99,0)	(-34,0)	(19,0)	(63,0)	(64,0)	(34,0)	(-252,0)	(105,2)	(106,1)	(1,1)	(25,0)	(90,0)	
L1D -105>	(0,88)	(106,44)	(104,50)	(2,3)	(38,2)	(1,10)	(105,24)	(70,2)	(29,1)	(26,2)	(156,1)	(-15,2)	(12,1)	(13,2)	(51,1)	(92,1)	
L1D -104>	(0,77)	(103,45)	(104,25)	(1,9)	(75,1)	(7,7)	(-26,1)	(-14,1)	(34,1)	(105,34)	(202,1)	(107,1)	(13,2)	(5,2)	(80,2)	(8,1)	
L1D -103>	(0,85)	(103,19)	(102,53)	(7,3)	(1,12)	(79,1)	(2,2)	(104,31)	(41,1)	(52,2)	(6,1)	(306,1)	(8,1)	(-52,1)	(46,1)	(-57,1)	
L1D -102>	(7,4)	(86,1)	(0,78)	(55,1)	(-138,1)	(1,9)	(101,54)	(102,21)	(103,43)	(3,1)	(315,1)	(83,2)	(40,1)	(41,1)	(51,2)	(32,1)	
L1D -101>	(108,82)	(-7,121)	(16,1)	(99,5)	(170,1)	(101,41)	(0,57)	(100,55)	(-40,1)	(-162,1)	(76,1)	(136,1)	(1,7)	(-4,1)	(92,2)	(102,29)	
L1D -100>	(7,4)	(0,73)	(2,3)	(34,1)	(100,19)	(35,2)	(99,44)	(1,9)	(101,27)	(60,1)	(72,1)	(-31,1)	(12,2)	(58,1)	(-86,1)	(4,1)	
L1D -99>	(18,5)	(0,33)	(-7,74)	(7,62)	(72,2)	(2,1)	(98,22)	(106,49)	(99,21)	(101,5)	(142,1)	(100,18)	(92,16)	(1,3)	(45,1)	(-231,1)	
L1D -98>	(97,67)	(12,3)	(99,38)	(0,98)	(-21,1)	(98,37)	(-85,1)	(383,1)	(195,1)	(-198,1)	(41,1)	(11,1)	(1,11)	(77,1)	(141,1)	(-5,1)	
L1D -97>	(7,106)	(17,1)	(0,4)	(96,4)	(12,1)	(35,1)	(16,1)	(-164,0)	(4,0)	(201,0)	(-60,0)	(-32,0)	(97,0)	(3,0)	(90,2)	(98,3)	
L1D -96>	(0,86)	(95,57)	(97,42)	(96,27)	(36,1)	(3,2)	(74,1)	(72,1)	(90,2)	(40,1)	(1,4)	(50,1)	(24,1)	(2,2)	(94,1)	(16,1)	
L1D -95>	(0,86)	(95,21)	(39,1)	(4,1)	(94,61)	(36,1)	(37,1)	(-281,1)	(96,35)	(88,1)	(-16,1)	(1,13)	(167,1)	(13,1)	(27,4)	(133,1)	
L1D -94>	(93,59)	(0,109)	(94,38)	(42,1)	(11,3)	(1,10)	(95,45)	(130,1)	(26,3)	(168,1)	(14,2)	(27,2)	(-9,1)	(62,1)	(16,2)	(-95,1)	
L1D -93>	(7,14)	(0,118)	(92,70)	(28,1)	(93,32)	(1,11)	(59,4)	(94,63)	(36,1)	(-61,1)	(44,1)	(104,1)	(16,4)	(152,1)	(134,1)	(17,2)	
L1D -92>	(92,31)	(0,47)	(99,72)	(-7,84)	(101,5)	(91,34)	(93,21)	(7,2)	(-23,1)	(74,1)	(35,1)	(11,3)	(6,2)	(18,7)	(1,6)	(-2,1)	
L1D -91>	(5,3)	(0,99)	(42,1)	(90,71)	(91,31)	(-12,2)	(3,2)	(232,1)	(177,2)	(49,1)	(1,15)	(-54,1)	(40,1)	(92,43)	(41,1)	(53,1)	
L1D -90>	(90,15)	(0,28)	(97,58)	(7,103)	(-7,110)	(91,17)	(83,19)	(425,3)	(46,1)	(178,1)	(4,1)	(136,1)	(1,3)	(164,3)	(89,17)	(6,1)	
L1D -89>	(0,103)	(1,12)	(48,1)	(88,77)	(89,22)	(11,4)	(86,1)	(3,1)	(90,53)	(-18,3)	(27,1)	(-12,1)	(-43,1)	(31,2)	(20,2)	(19,1)	
L1D -88>	(-83,1)	(7,79)	(88,1)	(0,2)	(90,0)	(-9,2)	(-72,0)	(-109,0)	(-18,0)	(85,0)	(87,2)	(81,1)	(32,0)	(-2,0)	(-38,0)	(89,0)	
L1D -87>	(19,2)	(0,107)	(87,37)	(76,2)	(85,2)	(86,67)	(1,15)	(-16,1)	(17,1)	(21,2)	(53,2)	(88,40)	(24,2)	(25,2)	(89,2)	(118,1)	
L1D -86>	(77,2)	(0,96)	(1,13)	(101,1)	(78,1)	(85,77)	(86,34)	(-30,1)	(87,44)	(94,1)	(-19,1)	(29,2)	(-12,1)	(144,1)	(7,4)	(-55,1)	
L1D -85>	(17,1)	(0,66)	(84,45)	(85,16)	(16,2)	(10,2)	(11,1)	(2,1)	(86,31)	(1,9)	(7,1)	(51,1)	(197,0)	(-102,0)	(3,1)	(83,0)	
L1D -84>	(83,78)	(0,114)	(84,41)	(1,11)	(-59,2)	(85,52)	(-7,1)	(2,3)	(-1,1)	(10,4)	(63,1)	(7,1)	(-37,1)	(3,2)	(-18,1)	(-215,1)	
L1D -83>	(90,72)	(1,3)	(-7,103)	(83,28)	(0,25)	(53,1)	(82,30)	(188,1)	(-94,1)	(33,1)	(-19,1)	(84,21)	(34,1)	(9,2)	(425,1)	(-118,1)	
L1D -82>	(0,117)	(83,53)	(82,38)	(1,10)	(81,63)	(7,5)	(-13,1)	(34,1)	(58,1)	(-15,2)	(80,1)	(33,1)	(123,1)	(66,1)	(18,1)	(19,3)	
L1D -81>	(0,33)	(7,124)	(-7,100)	(1,1)	(82,16)	(80,12)	(37,1)	(88,61)	(-18,3)	(81,16)	(74,18)	(-25,5)	(-97,1)	(418,1)	(-9,3)	(317,2)	
L1D -80>	(80,50)	(0,124)	(79,82)	(40,2)	(7,13)	(1,21)	(22,2)	(81,55)	(4,1)	(6,2)	(23,2)	(24,2)	(122,2)	(67,1)	(-12,2)	(19,1)	
L1D -79>	(-270,1)	(7,85)	(72,2)	(-29,1)	(1,1)	(0,1)	(11,1)	(78,3)	(-18,0)	(44,0)	(45,0)	(80,1)	(79,1)	(211,0)	(-20,0)	(190,0)	
L1D -78>	(77,61)	(0,113)	(12,19)	(-1,48)	(79,38)	(4,18)	(18,5)	(1,8)	(7,7)	(55,1)	(62,2)	(-19,1)	(-20,1)	(-15,1)	(78,30)	(5,1)	
L1D -77>	(0,118)	(76,99)	(78,58)	(9,6)	(77,36)	(1,17)	(7,3)	(17,2)	(37,2)	(32,2)	(234,2)	(131,1)	(-10,1)	(15,2)	(51,1)	(18,1)	
L1D -76>	(76,44)	(0,121)	(77,52)	(75,85)	(7,2)	(38,2)	(19,1)	(1,16)	(8,2)	(2,3)	(57,2)	(214,1)	(18,5)	(12,4)	(-13,1)	(-4,1)	
L1D -75>	(75,47)	(0,125)	(7,7)	(74,93)	(32,1)	(-24,1)	(68,1)	(76,66)	(1,18)	(122,1)	(34,2)	(57,1)	(-243,1)	(5,1)	(4,2)	(-8,2)	
L1D -74>	(73,17)	(74,22)	(0,24)	(-7,69)	(81,63)	(75,16)	(60,1)	(-25,1)	(29,1)	(35,1)	(36,1)	(-90,1)	(1,1)	(-70,0)	(12,0)	(-16,0)	
L1D -73>	(0,64)	(72,48)	(73,22)	(7,3)	(44,0)	(195,0)	(-18,0)	(74,36)	(76,0)	(11,2)	(2,4)	(161,0)	(5,2)	(4,1)	(20,0)	(1,7)	
L1D -72>	(7,53)	(-7,70)	(79,39)	(72,11)	(0,30)	(71,21)	(-11,1)	(297,1)	(290,2)	(73,12)	(407,1)	(-31,1)	(1,3)	(20,0)	(21,0)	(65,15)	
L1D -71>	(72,33)	(0,72)	(7,4)	(8,3)	(-6,1)	(70,58)	(71,27)	(1,8)	(-21,2)	(9,2)	(74,1)	(22,1)	(14,1)	(15,1)	(4,3)	(142,0)	
L1D -70>	(13,0)	(-164,0)	(7,66)	(71,3)	(-22,0)	(63,0)	(0,5)	(69,7)	(-191,0)	(-3,0)	(-11,0)	(1,1)	(322,0)	(-69,0)	(111,0)	(70,3)	
L1D -69>	(69,33)	(0,98)	(7,8)	(68,82)	(16,2)	(70,49)	(2,3)	(46,1)	(-28,1)	(-21,1)	(40,2)	(72,1)	(30,1)	(156,1)	(1,17)	(125,1)	
L1D -68>	(67,76)	(68,32)	(0,84)	(72,1)	(69,41)	(25,1)	(-2,1)	(7,7)	(16,2)	(3,2)	(1,10)	(362,1)	(2,2)	(-150,1)	(15,1)	(146,1)	
L1D -67>	(66,70)	(0,93)	(1,19)	(67,37)	(68,47)	(-12,1)	(-27,2)	(11,4)	(16,2)	(-28,3)	(4,2)	(15,5)	(14,7)	(-23,1)	(73,1)	(3,2)	
L1D -66>	(0,127)	(-12,118)	(66,40)	(65,83)	(7,8)	(9,4)	(12,5)	(33,3)	(11,5)	(67,78)	(28,3)	(1,21)	(48,1)	(13,2)	(-39,2)	(-18,2)	
L1D -65>	(-7,82)	(0,36)	(64,39)	(72,62)	(65,28)	(7,4)	(51,1)	(-103,1)	(1,4)	(66,27)	(67,1)	(36,2)	(-180,1)	(85,1)	(33,1)	(9,1)	
L1D -64>	(13,4)	(8,3)	(0,100)	(64,33)	(5,3)	(63,83)	(1,13)	(-9,1)	(263,1)	(86,1)	(65,46)	(19,2)	(11,2)	(17,1)	(53,2)	(-57,1)	
L1D -63>	(62,68)	(63,31)	(0,88)	(-7,112)	(42,2)	(70,75)	(-205,3)	(1,1)	(7,118)	(64,47)	(79,1)	(308,4)	(23,1)	(56,19)	(173,2)	(2,2)	
L1D -62>	(0,80)	(7,6)	(63,46)	(54,1)	(61,72)	(1,12)	(62,34)	(-126,1)	(90,1)	(16,2)	(8,1)	(45,1)	(29,1)	(23,1)	(35,1)	(36,1)	
L1D -61>	(2,1)	(-36,1)	(73,1)	(7,107)	(32,0)	(207,0)	(-26,0)	(81,0)	(46,0)	(35,0)	(60,7)	(62,2)	(-11,0)	(0,3)	(-7,0)	(-225,0)	
L1D -60>	(59,88)	(60,38)	(0,112)	(1,16)	(7,10)	(55,1)	(47,1)	(39,3)	(33,1)	(61,52)	(15,1)	(17,2)	(30,3)	(133,1)	(134,1)	(16,1)	
L1D -59>	(0,114)	(59,35)	(57,1)	(1,12)	(52,2)	(17,1)	(58,96)	(14,1)	(7,12)	(36,4)	(53,2)	(60,71)	(-11,5)	(25,2)	(39,4)	(3,5)	
L1D -58>	(57,8)	(0,12)	(-5,1)	(58,1)	(4,111)	(-7,6)	(33,1)	(22,1)	(56,1)	(7,2)	(43,1)	(44,1)	(59,5)	(-2,4)	(30,1)	(77,1)	
L1D -57>	(56,107)	(0,125)	(43,2)	(58,80)	(7,6)	(59,1)	(1,17)	(24,2)	(18,3)	(57,33)	(37,2)	(44,1)	(48,1)	(-9,3)	(-11,2)	(14,5)	
L1D -56>	(55,83)	(3,2)	(0,98)	(7,8)	(56,49)	(57,64)	(-7,106)	(63,79)	(-19,1)	(1,13)	(-42,1)	(87,1)	(20,1)	(-322,1)	(-315,1)	(4,37)	
L1D -55>	(7,6)	(3,1)	(0,86)	(34,1)	(55,23)	(-1,10)	(56,50)	(54,61)	(12,5)	(4,31)	(-28,1)	(6,4)	(9,2)	(1,13)	(28,2)	(29,2)	
L1D -54>	(0,39)	(1,3)	(54,17)	(61,54)	(-7,115)	(4,1)	(461,2)	(-8,1)	(53,30)	(-249,1)	(55,20)	(7,87)	(47,28)	(233,1)	(83,1)	(2,1)	
L1D -53>	(54,49)	(7,1)	(10,3)	(0,91)	(206,1)	(-7,2)	(1,10)	(21,2)	(52,71)	(53,24)	(8,2)	(68,2)	(2,2)	(80,1)	(38,2)	(-20,1)	
L1D -52>	(-186,0)	(0,3)	(7,64)	(10,0)	(44,0)	(-137,0)	(-15,0)	(-171,0)	(52,1)	(49,0)	(51,3)	(8,0)	(9,0)	(53,3)	(4,0)	(-144,1)	
L1D -51>	(0,79)	(1,10)	(52,43)	(51,33)	(7,4)	(87,1)	(21,2)	(50,79)	(22,2)	(23,2)	(17,1)	(41,3)	(12,4)	(11,1)	(19,1)	(42,1)	
L1D -50>	(50,33)	(0,81)	(1,13)	(7,6)	(51,54)	(10,1)	(-1,1)	(20,2)	(49,79)	(6,5)	(-35,1)	(26,1)	(12,3)	(45,1)	(256,1)	(2,3)	
L1D -49>	(0,102)	(7,8)	(49,32)	(48,101)	(-9,2)	(11,1)	(25,2)	(50,75)	(-48,3)	(10,1)	(6,6)	(1,14)	(15,1)	(14,2)	(4,5)	(-106,1)	
L1D -48>	(49,65)	(7,112)	(0,75)	(8,6)	(68,1)	(23,2)	(1,12)	(47,81)	(-13,2)	(17,1)	(6,8)	(48,28)	(10,3)	(11,2)	(18,2)	(50,4)	
L1D -47>	(47,30)	(11,1)	(12,4)	(0,45)	(-2,1)	(-1,2)	(46,46)	(-7,114)	(54,72)	(13,1)	(83,1)	(1,5)	(48,34)	(7,3)	(4,95)	(5,4)	
L1D -46>	(0,20)	(45,11)	(7,1)	(46,3)	(47,7)	(-12,115)	(305,1)	(-3,1)	(-41,1)	(3,1)	(55,1)	(9,1)	(10,1)	(16,1)	(72,1)	(14,1)	
L1D -45>	(0,72)	(11,8)	(497,2)	(160,2)	(1,8)	(-7,89)	(7,76)	(146,6)	(263,4)	(90,1)	(46,44)	(52,62)	(45,27)	(15,1)	(44,71)	(38,20)	
L1D -44>	(43,122)	(0,120)	(45,85)	(88,2)	(-12,26)	(44,43)	(29,3)	(7,7)	(21,1)	(157,1)	(18,4)	(-17,1)	(1,21)	(5,12)	(22,4)	(8,2)	
L1D -43>	(7,103)	(0,6)	(58,1)	(-416,1)	(39,1)	(19,2)	(36,2)	(10,1)	(11,1)	(42,3)	(5,1)	(20,1)	(43,1)	(44,3)	(-14,1)	(-153,1)	
L1D -42>	(-5,19)	(0,78)	(-7,5)	(41,94)	(6,3)	(7,4)	(25,1)	(5,6)	(-10,1)	(28,2)	(21,5)	(18,1)	(42,26)	(43,64)	(1,17)	(12,2)	
L1D -41>	(1,10)	(40,61)	(0,64)	(41,28)	(42,54)	(2,6)	(5,5)	(26,1)	(19,1)	(37,1)	(3,2)	(35,1)	(-14,1)	(6,4)	(-1,1)	(94,1)	
L1D -40>	(39,97)	(1,14)	(40,42)	(0,105)	(7,4)	(41,73)	(104,2)	(5,2)	(20,9)	(2,5)	(25,4)	(11,1)	(3,6)	(17,2)	(-12,2)	(4,6)	
L1D -39>	(40,66)	(0,85)	(12,10)	(-1,52)	(4,7)	(38,86)	(-7,5)	(1,15)	(39,36)	(-2,3)	(6,5)	(7,4)	(26,1)	(11,2)	(-4,1)	(-8,1)	
L1D -38>	(4,64)	(0,18)	(38,6)	(-7,15)	(45,6)	(37,15)	(29,0)	(1,1)	(-1,11)	(39,10)	(-2,3)	(60,1)	(-32,0)	(17,0)	(12,2)	(18,0)	
L1D -37>	(0,65)	(36,80)	(38,59)	(28,1)	(37,27)	(35,1)	(16,1)	(4,2)	(1,11)	(3,1)	(7,1)	(17,1)	(18,2)	(286,1)	(135,1)	(12,3)	
L1D -36>	(0,45)	(7,88)	(43,61)	(29,22)	(-7,86)	(506,3)	(36,34)	(35,48)	(-153,4)	(236,3)	(1,11)	(-61,4)	(-160,4)	(37,44)	(-54,3)	(96,1)	
L1D -35>	(-1,35)	(19,2)	(14,8)	(5,39)	(-8,1)	(6,3)	(0,57)	(3,1)	(39,2)	(17,4)	(-12,110)	(21,1)	(1,8)	(35,27)	(34,52)	(36,46)	
L1D -34>	(29,1)	(0,15)	(14,72)	(7,66)	(34,7)	(33,14)	(35,11)	(30,1)	(100,1)	(-16,1)	(16,0)	(64,0)	(1,1)	(17,4)	(13,1)	(39,0)	
L1D -33>	(4,1)	(34,52)	(33,30)	(0,70)	(1,14)	(32,67)	(17,2)	(-194,1)	(-9,1)	(7,5)	(16,9)	(10,3)	(3,2)	(141,1)	(47,1)	(6,2)	
L1D -32>	(11,1)	(31,108)	(0,94)	(7,7)	(33,77)	(6,5)	(48,1)	(14,2)	(16,16)	(32,55)	(10,4)	(-1,5)	(34,2)	(-144,1)	(1,16)	(4,4)	
L1D -31>	(0,74)	(30,101)	(32,76)	(31,28)	(7,3)	(12,4)	(14,1)	(9,2)	(13,3)	(16,4)	(1,15)	(25,1)	(43,1)	(-44,1)	(15,8)	(23,2)	
L1D -30>	(0,115)	(1,52)	(30,59)	(21,2)	(14,1)	(29,125)	(-10,6)	(4,2)	(23,3)	(31,93)	(42,1)	(17,4)	(6,5)	(8,1)	(27,2)	(15,21)	
L1D -29>	(-7,89)	(1,15)	(28,84)	(36,77)	(0,75)	(29,44)	(7,5)	(18,1)	(6,2)	(2,6)	(14,11)	(30,68)	(19,1)	(44,2)	(-21,1)	(16,3)	
L1D -28>	(28,40)	(0,92)	(25,1)	(27,97)	(2,5)	(26,2)	(14,12)	(7,4)	(29,68)	(1,16)	(3,3)	(4,6)	(32,1)	(21,3)	(17,3)	(20,5)	
L1D -27>	(26,73)	(-12,14)	(27,27)	(0,65)	(1,16)	(14,3)	(7,23)	(34,18)	(28,63)	(6,2)	(-7,24)	(20,6)	(15,3)	(13,2)	(-1,1)	(8,2)	
L1D -26>	(26,10)	(13,1)	(7,2)	(25,17)	(1,3)	(0,14)	(53,1)	(-8,5)	(-40,1)	(-54,1)	(27,19)	(-12,107)	(40,1)	(42,1)	(10,1)	(4,1)	
L1D -25>	(26,7)	(-360,1)	(-4,1)	(7,91)	(18,1)	(1,2)	(113,1)	(8,1)	(-56,0)	(0,5)	(25,4)	(24,5)	(-18,0)	(12,1)	(11,1)	(88,0)	
L1D -24>	(12,19)	(0,76)	(23,101)	(2,10)	(7,5)	(1,20)	(25,74)	(14,1)	(9,3)	(24,42)	(-18,2)	(35,2)	(29,2)	(5,4)	(13,2)	(4,4)	
L1D -23>	(22,10)	(-2,44)	(11,1)	(0,8)	(20,1)	(24,9)	(3,2)	(23,3)	(1,119)	(-22,1)	(-8,2)	(114,1)	(-5,1)	(10,1)	(-17,0)	(-1,4)	
L1D -22>	(12,2)	(-10,2)	(22,11)	(4,115)	(2,1)	(0,19)	(16,107)	(21,35)	(23,25)	(19,1)	(-1,2)	(61,1)	(-3,6)	(1,4)	(11,7)	(39,2)	
L1D -21>	(0,88)	(20,124)	(-18,38)	(1,18)	(21,42)	(-6,49)	(7,4)	(118,1)	(2,7)	(22,95)	(-8,2)	(3,6)	(4,5)	(5,8)	(10,20)	(16,4)	
L1D -20>	(21,61)	(19,69)	(0,56)	(-7,14)	(40,2)	(-2,1)	(10,12)	(1,16)	(20,29)	(2,3)	(18,2)	(27,10)	(-18,10)	(11,3)	(30,2)	(8,3)	
L1D -19>	(18,117)	(2,4)	(3,3)	(10,1)	(-3,3)	(19,49)	(20,89)	(1,25)	(0,86)	(9,17)	(7,5)	(6,6)	(13,6)	(-1,7)	(4,6)	(5,7)	
L1D -18>	(17,80)	(-7,110)	(25,78)	(38,102)	(0,68)	(18,50)	(7,100)	(19,67)	(9,18)	(1,18)	(11,15)	(76,1)	(10,7)	(-133,2)	(4,31)	(12,49)	
L1D -17>	(29,1)	(2,9)	(-2,13)	(9,10)	(16,120)	(1,23)	(0,92)	(17,33)	(23,18)	(13,2)	(8,18)	(14,2)	(18,78)	(12,4)	(15,3)	(-1,3)	
L1D -16>	(7,122)	(-3,1)	(78,1)	(2,1)	(-9,1)	(441,2)	(0,9)	(1,2)	(16,8)	(24,1)	(-16,1)	(22,1)	(8,2)	(17,8)	(15,13)	(9,3)	
L1D -15>	(10,22)	(15,12)	(14,37)	(7,124)	(0,33)	(50,1)	(16,26)	(41,1)	(-15,2)	(3,1)	(25,1)	(47,1)	(146,1)	(1,8)	(-11,1)	(12,1)	
L1D -14>	(15,15)	(0,18)	(46,1)	(12,67)	(10,1)	(8,1)	(3,1)	(-1,3)	(-7,4)	(7,3)	(14,3)	(1,6)	(125,1)	(4,78)	(-22,1)	(13,19)	
L1D -13>	(15,44)	(5,99)	(-52,1)	(13,112)	(2,1)	(9,1)	(4,0)	(7,58)	(-1,0)	(0,13)	(23,0)	(12,3)	(6,0)	(-13,0)	(14,3)	(1,2)	
L1D -12>	(0,14)	(4,1)	(2,1)	(-1,3)	(6,4)	(-4,107)	(12,10)	(11,16)	(7,87)	(128,1)	(13,13)	(1,5)	(3,5)	(-7,3)	(-8,1)	(-2,6)	
L1D -11>	(12,68)	(-7,8)	(4,64)	(1,2)	(19,4)	(18,4)	(11,11)	(0,6)	(10,10)	(47,1)	(-2,1)	(8,1)	(5,3)	(3,2)	(7,1)	(-1,3)	
L1D -10>	(-4,70)	(3,2)	(-3,3)	(0,18)	(49,1)	(8,1)	(11,14)	(-67,1)	(12,1)	(-2,7)	(5,7)	(9,18)	(10,11)	(-15,0)	(1,33)	(18,2)	
L1D -9>	(5,6)	(-1,38)	(9,29)	(10,51)	(7,59)	(0,50)	(15,1)	(-5,27)	(16,48)	(1,17)	(-3,41)	(-12,8)	(4,13)	(2,12)	(-7,71)	(8,59)	
L1D -8>	(-4,116)	(6,0)	(52,0)	(14,1)	(0,1)	(3,2)	(9,1)	(10,0)	(2,0)	(4,1)	(8,6)	(22,0)	(7,1)	(-1,0)	(1,0)	(15,0)	
L1D -7>	(7,101)	(297,1)	(-9,1)	(-126,1)	(-117,1)	(9,0)	(-245,0)	(-263,0)	(4,0)	(11,0)	(-108,0)	(250,0)	(-101,0)	(8,0)	(-468,0)	(0,19)	
L1D -6>	(0,125)	(-7,47)	(-12,9)	(1,23)	(7,65)	(2,9)	(4,3)	(9,3)	(18,1)	(5,51)	(42,8)	(3,10)	(6,21)	(12,5)	(-5,6)	(-8,5)	
L1D -5>	(9,1)	(-2,3)	(11,91)	(16,36)	(0,59)	(6,28)	(10,51)	(1,76)	(3,2)	(-35,2)	(12,1)	(47,4)	(5,27)	(2,33)	(-1,25)	(4,18)	
L1D -4>	(12,116)	(4,115)	(7,0)	(-7,4)	(2,0)	(-35,0)	(3,8)	(14,2)	(-5,0)	(8,10)	(-4,9)	(-2,4)	(-1,4)	(0,1)	(-6,0)	(5,1)	
L1D -3>	(4,88)	(16,6)	(3,21)	(1,37)	(2,32)	(0,83)	(-2,56)	(5,12)	(8,27)	(-7,3)	(6,12)	(13,13)	(-1,22)	(11,5)	(-10,1)	(7,7)	
L1D -2>	(-8,46)	(-7,4)	(1,6)	(12,1)	(18,1)	(5,1)	(8,1)	(-3,2)	(-13,1)	(0,3)	(3,24)	(6,105)	(2,3)	(11,9)	(9,7)	(-1,1)	
L1D -1>	(-11,43)	(-12,14)	(0,95)	(-1,92)	(-7,1)	(3,21)	(2,17)	(4,11)	(7,2)	(-5,5)	(5,7)	(1,9)	(6,1)	(-3,0)	(-15,0)	(10,27)	
L1D 0>	(1,2)	(0,85)	(-4,29)	(2,2)	(4,2)	(8,5)	(6,2)	(10,2)	(127,2)	(-183,1)	(-7,72)	(-8,5)	(124,1)	(125,1)	(7,52)	(-1,58)	
L1D 1>	(3,20)	(-4,14)	(1,113)	(2,5)	(-177,1)	(20,1)	(-3,3)	(-1,18)	(10,5)	(7,1)	(-13,1)	(-15,2)	(-6,2)	(-47,1)	(-35,3)	(0,7)	
L1D 2>	(-15,30)	(7,93)	(11,1)	(-58,30)	(-7,1)	(-2,28)	(9,7)	(0,29)	(1,45)	(37,1)	(2,7)	(3,3)	(-1,61)	(5,3)	(8,1)	(-46,32)	
L1D 3>	(1,27)	(-1,22)	(-10,10)	(-7,2)	(2,14)	(22,49)	(3,2)	(-9,10)	(11,73)	(9,1)	(0,5)	(-58,0)	(-2,5)	(-3,10)	(8,5)	(5,4)	
L1D 4>	(-4,70)	(11,0)	(17,0)	(-46,1)	(8,24)	(4,0)	(-8,0)	(2,0)	(0,29)	(-1,1)	(3,0)	(14,3)	(-11,2)	(-3,1)	(12,3)	(-2,1)	
L1D 5>	(15,0)	(14,2)	(8,1)	(7,0)	(5,5)	(-10,2)	(-4,97)	(-5,17)	(1,4)	(-1,2)	(9,1)	(0,3)	(-8,0)	(6,15)	(2,1)	(-6,2)	
L1D 6>	(107,1)	(10,1)	(-13,5)	(0,5)	(-1,5)	(-23,35)	(-4,87)	(5,4)	(1,12)	(20,1)	(2,1)	(-5,24)	(7,1)	(-6,37)	(6,3)	(-12,2)	
L1D 7>	(92,1)	(-7,120)	(29,2)	(-25,4)	(128,2)	(-115,1)	(0,31)	(425,1)	(74,2)	(263,1)	(47,4)	(-259,1)	(173,2)	(-88,3)	(155,2)	(-250,1)	
L1D 8>	(-11,0)	(-9,1)	(-36,0)	(-8,64)	(8,0)	(-4,40)	(-1,1)	(0,7)	(-7,6)	(-13,31)	(-5,42)	(14,1)	(1,2)	(6,1)	(-16,1)	(17,0)	
L1D 9>	(1,9)	(4,0)	(-9,69)	(74,2)	(0,15)	(-16,8)	(-2,17)	(-1,8)	(-10,5)	(-7,24)	(7,27)	(-8,21)	(23,9)	(44,0)	(425,0)	(9,2)	
L1D 10>	(-5,56)	(-11,0)	(1,53)	(-10,62)	(3,33)	(0,19)	(-1,6)	(-16,1)	(9,2)	(-6,29)	(-9,16)	(-23,39)	(-21,2)	(5,65)	(-59,0)	(-12,1)	
L1D 11>	(-4,23)	(7,43)	(-10,7)	(8,4)	(-9,3)	(-12,1)	(1,2)	(-324,1)	(14,2)	(-1,33)	(-13,73)	(0,15)	(2,15)	(-11,18)	(-22,1)	(-18,1)	
L1D 12>	(-1,14)	(-13,70)	(-29,0)	(-25,0)	(-8,58)	(1,0)	(12,0)	(7,0)	(-12,3)	(-5,0)	(6,0)	(11,0)	(0,1)	(-11,0)	(-14,0)	(-24,0)	
L1D 13>	(-8,118)	(18,1)	(0,1)	(-48,1)	(-16,1)	(-17,0)	(-13,12)	(-26,0)	(-18,0)	(35,0)	(21,0)	(-12,3)	(-9,2)	(-1,0)	(1,2)	(-5,0)	
L1D 14>	(0,7)	(-6,53)	(-22,97)	(-29,2)	(2,11)	(-1,30)	(-14,52)	(1,10)	(16,2)	(-18,14)	(10,1)	(-19,1)	(-16,1)	(111,1)	(-34,1)	(-13,43)	
L1D 15>	(-10,25)	(-2,84)	(39,1)	(-49,1)	(-15,36)	(32,1)	(14,2)	(7,1)	(-14,61)	(-16,1)	(0,2)	(1,4)	(-20,1)	(18,0)	(13,0)	(-1,1)	
L1D 16>	(-9,76)	(-8,11)	(0,122)	(-15,29)	(1,15)	(-16,109)	(-1,13)	(-7,43)	(37,2)	(-17,4)	(-41,2)	(-30,2)	(16,5)	(-23,109)	(-32,3)	(-215,1)	
L1D 17>	(-21,1)	(-20,1)	(-17,81)	(0,7)	(1,16)	(-102,1)	(-16,20)	(2,1)	(-18,3)	(-1,8)	(-28,1)	(-34,2)	(-19,1)	(-45,1)	(7,1)	(35,1)	
L1D 18>	(1,17)	(-7,47)	(2,1)	(-18,98)	(-11,45)	(-25,9)	(83,1)	(-19,2)	(11,1)	(15,1)	(0,8)	(7,48)	(-1,7)	(74,10)	(-17,32)	(353,1)	
L1D 19>	(-13,100)	(-1,51)	(-38,3)	(-26,2)	(-8,90)	(-21,1)	(-24,1)	(12,1)	(0,7)	(-18,13)	(-19,51)	(1,9)	(-39,1)	(-35,1)	(-23,1)	(-15,1)	
L1D 20>	(-21,2)	(-10,1)	(-26,94)	(-31,1)	(1,9)	(23,1)	(0,2)	(-20,50)	(7,55)	(-1,6)	(-34,27)	(-23,1)	(3,1)	(-38,81)	(-19,12)	(2,1)	
L1D 21>	(-50,2)	(-20,32)	(1,15)	(23,1)	(-21,120)	(-38,1)	(-1,10)	(59,1)	(0,1)	(24,1)	(61,2)	(-22,1)	(6,1)	(-37,1)	(-423,1)	(141,1)	
L1D 22>	(1,4)	(20,116)	(-18,25)	(-32,1)	(-22,30)	(-25,1)	(0,3)	(25,1)	(-44,1)	(22,1)	(-1,2)	(-6,5)	(-120,1)	(4,1)	(-21,3)	(-24,1)	
L1D 23>	(23,2)	(-1,13)	(-23,126)	(1,27)	(0,2)	(-27,2)	(-22,39)	(91,1)	(26,1)	(-4,34)	(239,2)	(112,1)	(-107,1)	(-24,3)	(28,1)	(-46,1)	
L1D 24>	(48,2)	(18,1)	(-24,90)	(1,29)	(0,2)	(-25,3)	(-202,1)	(-23,28)	(-1,7)	(10,1)	(12,2)	(-31,1)	(129,1)	(-28,1)	(76,1)	(33,1)	
L1D 25>	(-25,117)	(-50,3)	(-7,46)	(-24,37)	(-27,3)	(16,2)	(-22,1)	(-1,12)	(-18,70)	(1,21)	(254,1)	(-51,2)	(0,8)	(108,1)	(-30,1)	(-26,1)	
L1D 26>	(0,2)	(-26,70)	(7,1)	(1,15)	(86,1)	(-1,7)	(84,1)	(-81,1)	(-25,22)	(25,1)	(2,1)	(68,1)	(-73,1)	(14,1)	(13,1)	(-38,0)	
L1D 27>	(1,21)	(-46,2)	(20,2)	(-30,1)	(-27,99)	(-34,1)	(-1,10)	(0,1)	(7,12)	(-29,4)	(-41,1)	(-7,5)	(2,3)	(9,2)	(-26,27)	(-20,7)	
L1D 28>	(8,2)	(-28,88)	(-1,4)	(0,2)	(1,16)	(107,1)	(21,1)	(78,1)	(2,1)	(12,1)	(-29,3)	(54,1)	(-27,25)	(-31,1)	(-23,2)	(17,1)	
L1D 29>	(7,126)	(21,2)	(-33,1)	(20,1)	(281,1)	(39,1)	(-29,25)	(76,2)	(-39,1)	(-83,1)	(-24,1)	(-28,5)	(1,4)	(55,1)	(2,1)	(30,1)	
L1D 30>	(0,4)	(-104,2)	(-32,4)	(-29,32)	(-30,113)	(-73,1)	(2,1)	(4,1)	(-62,1)	(-61,1)	(30,1)	(-1,8)	(9,1)	(1,21)	(-60,2)	(72,1)	
L1D 31>	(-34,4)	(-1,14)	(-31,114)	(0,4)	(-28,3)	(2,1)	(1,20)	(-290,1)	(-30,33)	(-51,1)	(224,1)	(98,1)	(32,3)	(12,1)	(-32,1)	(9,1)	
L1D 32>	(1,20)	(0,3)	(-32,103)	(-33,2)	(-1,11)	(2,1)	(-67,1)	(35,1)	(-83,2)	(-31,31)	(24,1)	(7,4)	(-41,1)	(56,1)	(8,1)	(360,1)	
L1D 33>	(0,2)	(-1,6)	(-33,88)	(-43,1)	(1,18)	(107,1)	(13,1)	(25,1)	(63,1)	(56,2)	(-84,1)	(-34,1)	(-32,24)	(38,1)	(23,1)	(10,2)	
L1D 34>	(66,1)	(1,21)	(-34,96)	(-35,3)	(-52,1)	(-7,8)	(-27,7)	(-33,22)	(34,1)	(-1,8)	(-68,2)	(184,1)	(183,1)	(30,1)	(102,1)	(-93,1)	
L1D 35>	(7,3)	(-35,115)	(-48,17)	(13,2)	(1,22)	(39,1)	(0,8)	(-37,1)	(-70,3)	(35,2)	(-1,13)	(105,1)	(23,1)	(-34,24)	(-38,2)	(51,1)	
L1D 36>	(0,9)	(-7,77)	(-29,45)	(7,67)	(45,2)	(-48,8)	(-42,3)	(-43,6)	(2,1)	(-36,122)	(-35,35)	(-1,14)	(-90,1)	(1,21)	(-38,1)	(49,1)	
L1D 37>	(-1,4)	(0,2)	(1,14)	(-38,1)	(-37,85)	(-40,1)	(54,1)	(-85,1)	(-46,1)	(-36,21)	(-18,1)	(-39,2)	(7,1)	(2,1)	(34,1)	(-53,2)	
L1D 38>	(-37,5)	(1,3)	(57,0)	(-20,1)	(23,0)	(7,70)	(4,0)	(108,0)	(271,0)	(-218,0)	(-38,14)	(-34,18)	(15,0)	(-41,0)	(-1,1)	(22,0)	
L1D 39>	(-1,8)	(1,25)	(0,4)	(-39,110)	(-38,33)	(7,2)	(-74,1)	(39,1)	(-4,1)	(-50,1)	(-37,1)	(147,1)	(2,1)	(181,1)	(-262,1)	(-55,1)	
L1D 40>	(-219,1)	(-40,80)	(1,17)	(-26,1)	(47,1)	(-1,5)	(-39,20)	(22,1)	(20,1)	(0,4)	(-64,1)	(23,1)	(-88,1)	(8,0)	(64,0)	(21,0)	
L1D 41>	(53,1)	(-41,14)	(0,1)	(-51,1)	(-53,0)	(-82,1)	(41,1)	(14,0)	(-21,4)	(-40,3)	(1,115)	(12,0)	(-67,0)	(-31,0)	(-81,0)	(29,0)	
L1D 42>	(-89,1)	(1,64)	(-21,12)	(-56,1)	(-42,107)	(-162,1)	(-1,6)	(-20,9)	(0,4)	(-41,23)	(-55,1)	(38,1)	(204,1)	(-173,1)	(-115,1)	(14,1)	
L1D 43>	(30,1)	(-21,17)	(-43,97)	(-36,43)	(1,25)	(0,3)	(-7,48)	(-42,26)	(-1,16)	(-295,1)	(17,1)	(19,1)	(297,1)	(-40,1)	(-90,1)	(29,1)	
L1D 44>	(1,22)	(-43,25)	(-44,94)	(44,2)	(262,2)	(-1,13)	(-52,1)	(0,6)	(51,1)	(-35,1)	(35,1)	(-57,1)	(45,1)	(81,1)	(-53,2)	(31,1)	
L1D 45>	(-45,94)	(1,19)	(7,41)	(-1,9)	(-7,36)	(79,2)	(0,7)	(-38,31)	(-90,1)	(-44,20)	(-52,8)	(-51,1)	(108,4)	(2,2)	(101,5)	(195,1)	
L1D 46>	(-1,10)	(0,3)	(1,32)	(-46,96)	(9,1)	(-48,2)	(-83,1)	(29,1)	(193,1)	(-47,1)	(77,1)	(2,2)	(-116,1)	(23,2)	(-56,2)	(-45,25)	
L1D 47>	(-1,1)	(42,1)	(7,108)	(-272,1)	(33,0)	(153,0)	(-47,6)	(-46,1)	(1,7)	(-344,0)	(0,1)	(26,0)	(6,0)	(-39,0)	(-63,0)	(-54,0)	
L1D 48>	(-1,6)	(0,2)	(-48,74)	(-47,16)	(-53,1)	(-50,1)	(1,18)	(37,1)	(-184,1)	(-107,1)	(7,1)	(-72,1)	(-70,1)	(40,1)	(18,1)	(2,1)	
L1D 49>	(-49,114)	(-98,3)	(1,84)	(0,5)	(-1,9)	(10,2)	(2,1)	(-54,1)	(16,2)	(64,1)	(-64,1)	(-48,35)	(208,1)	(12,1)	(-50,2)	(-63,1)	
L1D 50>	(-50,102)	(1,29)	(50,1)	(-1,9)	(158,1)	(-53,1)	(0,3)	(-66,1)	(-49,21)	(186,1)	(8,1)	(51,1)	(-37,1)	(-25,1)	(6,1)	(-54,1)	
L1D 51>	(-1,7)	(0,5)	(-51,83)	(34,1)	(-66,1)	(1,19)	(-53,1)	(-237,1)	(-50,26)	(14,2)	(25,2)	(52,1)	(250,1)	(2,2)	(73,1)	(-222,1)	
L1D 52>	(0,4)	(-52,65)	(-7,33)	(1,18)	(19,1)	(101,1)	(17,1)	(-45,28)	(60,1)	(-55,1)	(-1,8)	(152,1)	(-196,1)	(-34,0)	(-51,19)	(-73,0)	
L1D 53>	(-53,93)	(-83,2)	(1,17)	(30,1)	(-1,8)	(7,2)	(100,1)	(0,4)	(98,1)	(-39,1)	(-57,1)	(14,1)	(-52,23)	(150,1)	(2,1)	(43,1)	
L1D 54>	(0,6)	(146,1)	(7,66)	(-7,69)	(-53,13)	(-47,51)	(1,9)	(-1,5)	(-223,1)	(29,3)	(-54,54)	(8,1)	(-61,13)	(-87,1)	(59,0)	(2,1)	
L1D 55>	(2,1)	(-55,73)	(27,1)	(0,3)	(7,1)	(-109,1)	(26,2)	(-1,10)	(-59,2)	(-54,15)	(18,1)	(1,15)	(23,1)	(-66,2)	(5,1)	(-19,1)	
L1D 56>	(117,4)	(-18,1)	(-56,23)	(-62,1)	(7,95)	(-14,1)	(0,4)	(-31,1)	(1,4)	(-55,5)	(54,1)	(-275,1)	(241,1)	(-89,2)	(-1,1)	(-61,1)	
L1D 57>	(0,6)	(37,1)	(54,1)	(59,1)	(239,1)	(-57,88)	(1,21)	(-71,1)	(-60,1)	(-1,12)	(-56,21)	(18,1)	(-95,1)	(19,0)	(-186,0)	(-50,0)	
L1D 58>	(-181,1)	(1,16)	(-58,64)	(7,2)	(-76,0)	(0,3)	(61,0)	(-1,7)	(-90,1)	(162,0)	(-57,15)	(60,0)	(52,0)	(-84,0)	(-68,0)	(2,0)	
L1D 59>	(0,7)	(-59,104)	(48,1)	(1,28)	(7,2)	(11,1)	(16,1)	(55,1)	(-1,13)	(-62,1)	(157,1)	(2,1)	(-58,33)	(-21,1)	(4,1)	(-63,1)	
L1D 60>	(-1,8)	(-60,75)	(0,7)	(1,20)	(-112,1)	(-22,1)	(78,1)	(-62,1)	(-69,2)	(-59,19)	(14,1)	(7,1)	(-29,0)	(2,2)	(60,1)	(-120,0)	
L1D 61>	(1,25)	(-61,120)	(-7,117)	(-82,2)	(0,6)	(-54,119)	(-358,2)	(29,3)	(-60,32)	(7,2)	(2,2)	(-1,18)	(-286,2)	(146,2)	(11,1)	(81,2)	
L1D 62>	(0,7)	(-31,1)	(-62,69)	(7,1)	(1,15)	(-1,11)	(-78,1)	(-61,25)	(-73,1)	(9,1)	(-66,0)	(-16,0)	(-63,1)	(-222,0)	(-103,0)	(-93,0)	
L1D 63>	(110,5)	(-63,120)	(-58,1)	(7,72)	(-62,29)	(1,29)	(0,9)	(-7,75)	(-1,18)	(-56,47)	(-70,13)	(20,3)	(-113,1)	(35,1)	(-78,1)	(259,1)	
L1D 64>	(-64,124)	(1,36)	(-1,19)	(-63,30)	(226,1)	(-2,1)	(0,12)	(-80,2)	(-83,1)	(66,1)	(-66,1)	(154,2)	(7,4)	(61,1)	(2,5)	(-70,1)	
L1D 65>	(108,1)	(-66,1)	(142,0)	(7,96)	(-65,9)	(-63,1)	(-342,0)	(1,1)	(-64,0)	(0,1)	(2,0)	(-53,0)	(-108,0)	(234,0)	(-164,0)	(-1,1)	
L1D 66>	(-1,14)	(-66,123)	(1,28)	(0,10)	(7,2)	(11,1)	(31,1)	(-65,33)	(-132,1)	(149,1)	(-70,1)	(-35,1)	(8,1)	(2,2)	(-11,2)	(133,1)	
L1D 67>	(-67,85)	(7,1)	(0,6)	(-1,11)	(1,20)	(-66,20)	(9,1)	(34,1)	(8,1)	(-91,0)	(-213,0)	(-115,0)	(-74,1)	(-71,1)	(4,0)	(-81,0)	
L1D 68>	(-94,1)	(0,4)	(1,16)	(3,0)	(-1,11)	(-68,67)	(-95,0)	(264,0)	(-67,19)	(59,0)	(-115,0)	(2,1)	(-73,0)	(-79,0)	(7,1)	(-54,0)	
L1D 69>	(-69,103)	(-68,29)	(1,22)	(-1,18)	(0,14)	(7,3)	(-91,1)	(-84,1)	(-71,1)	(46,1)	(125,1)	(-73,2)	(69,1)	(-138,1)	(43,1)	(63,1)	
L1D 70>	(-70,127)	(0,8)	(-86,2)	(-7,56)	(1,23)	(-74,1)	(-69,30)	(-63,45)	(-140,1)	(-1,12)	(-268,2)	(-72,2)	(-34,1)	(53,1)	(-101,1)	(36,2)	
L1D 71>	(0,10)	(-72,3)	(-71,117)	(-70,32)	(2,4)	(123,1)	(105,1)	(122,1)	(23,1)	(-67,1)	(1,28)	(-86,1)	(-74,1)	(-1,16)	(32,1)	(-136,1)	
L1D 72>	(1,14)	(-1,8)	(-7,76)	(-65,47)	(7,72)	(-72,61)	(270,1)	(0,7)	(225,2)	(101,1)	(2,1)	(-79,11)	(-71,16)	(-102,1)	(-75,1)	(227,3)	
L1D 73>	(-73,110)	(1,25)	(-1,22)	(32,1)	(0,9)	(-159,1)	(-72,28)	(36,1)	(-70,1)	(-74,1)	(-18,1)	(-121,1)	(35,1)	(-28,1)	(114,1)	(16,1)	
L1D 74>	(30,2)	(7,118)	(-113,1)	(-171,1)	(-74,8)	(124,0)	(-83,0)	(414,0)	(-72,0)	(1,1)	(-30,0)	(0,0)	(-155,0)	(-1,0)	(-81,0)	(45,0)	
L1D 75>	(1,22)	(-75,86)	(0,7)	(-237,2)	(-1,17)	(-108,1)	(-139,1)	(-96,1)	(24,1)	(-31,1)	(-86,1)	(118,1)	(7,1)	(-74,19)	(-160,1)	(2,2)	
L1D 76>	(-82,1)	(-76,81)	(-1,13)	(0,7)	(-91,1)	(1,16)	(7,1)	(208,1)	(-75,19)	(25,1)	(-80,2)	(275,0)	(-278,0)	(41,0)	(-2,0)	(43,0)	
L1D 77>	(-1,11)	(1,13)	(0,8)	(2,2)	(-97,1)	(-79,0)	(-77,64)	(19,0)	(-161,0)	(132,0)	(45,0)	(-76,12)	(115,1)	(25,1)	(-80,0)	(156,0)	
L1D 78>	(0,10)	(-1,11)	(1,28)	(-78,85)	(7,2)	(78,1)	(-165,1)	(35,1)	(113,1)	(-62,1)	(-77,23)	(-385,0)	(94,0)	(-20,0)	(269,0)	(52,0)	
L1D 79>	(-83,2)	(-72,95)	(-7,119)	(1,28)	(-124,2)	(0,7)	(-79,104)	(-78,24)	(7,8)	(2,3)	(-106,1)	(-34,1)	(353,1)	(-112,1)	(11,1)	(-1,15)	
L1D 80>	(-80,114)	(1,34)	(-1,22)	(0,22)	(-79,37)	(-81,1)	(25,1)	(-40,1)	(-121,1)	(7,1)	(-112,1)	(38,1)	(9,1)	(24,2)	(110,1)	(109,1)	
L1D 81>	(-81,49)	(7,64)	(-7,99)	(-80,11)	(-88,15)	(-1,3)	(-74,68)	(-43,1)	(0,10)	(1,7)	(236,1)	(200,1)	(-106,2)	(-90,3)	(-97,2)	(-232,1)	
L1D 82>	(3,1)	(0,16)	(-82,92)	(-81,26)	(1,29)	(-1,22)	(-84,1)	(20,2)	(90,1)	(2,1)	(-99,1)	(32,1)	(26,1)	(-92,1)	(-85,1)	(7,2)	
[...]
L1D 357>	(-357,26)	(-1,6)	(1,9)	(0,4)	(-356,7)	(-394,1)	(-277,1)	(-194,1)	(7,2)	(-378,1)	(-289,1)	(-354,1)	(1,0)	(1,0)	(1,0)	(1,0)	
L1D 358>	(-1,11)	(-7,96)	(-351,84)	(-358,31)	(1,9)	(-54,3)	(-106,7)	(-61,6)	(-99,4)	(9,5)	(7,6)	(0,7)	(-357,4)	(-52,1)	(-97,1)	(-387,1)	
L1D 359>	(-359,25)	(0,6)	(1,8)	(-1,6)	(-313,1)	(-358,8)	(-433,1)	(-36,1)	(7,6)	(2,1)	(1,0)	(1,0)	(1,0)	(1,0)	(1,0)	(1,0)	
L1D 360>	(7,43)	(11,1)	(-353,29)	(1,1)	(0,4)	(-7,67)	(-359,1)	(-360,12)	(65,0)	(-101,0)	(-421,0)	(54,1)	(-2,0)	(-367,12)	(-414,0)	(-1,1)	
L1D 361>	(-199,1)	(-361,23)	(0,5)	(1,6)	(-1,4)	(7,4)	(-360,6)	(-2,1)	(1,0)	(1,0)	(1,0)	(1,0)	(1,0)	(1,0)	(1,0)	(1,0)	
L1D 362>	(7,92)	(-1,1)	(-369,4)	(0,2)	(-361,1)	(18,2)	(-362,4)	(-387,0)	(-504,0)	(-378,0)	(1,0)	(-506,0)	(-112,0)	(-252,0)	(-335,0)	(-245,0)	
L1D 363>	(-1,10)	(-363,17)	(1,10)	(0,8)	(-386,1)	(-362,6)	(7,2)	(2,1)	(1,0)	(1,0)	(1,0)	(1,0)	(1,0)	(1,0)	(1,0)	(1,0)	
L1D 364>	(-364,25)	(-1,5)	(1,6)	(0,5)	(-363,8)	(-397,1)	(7,2)	(-471,1)	(-200,1)	(1,0)	(1,0)	(1,0)	(1,0)	(1,0)	(1,0)	(1,0)	
L1D 365>	(-365,21)	(0,2)	(-1,6)	(1,10)	(-335,1)	(-364,3)	(-205,1)	(-434,1)	(3,1)	(-203,1)	(7,2)	(1,0)	(1,0)	(1,0)	(1,0)	(1,0)	
L1D 366>	(-366,15)	(0,7)	(-365,5)	(-370,1)	(-1,7)	(1,5)	(-244,1)	(-209,1)	(-251,1)	(-21,1)	(7,1)	(1,0)	(1,0)	(1,0)	(1,0)	(1,0)	
L1D 367>	(-7,69)	(-360,53)	(-367,13)	(47,1)	(65,0)	(-259,1)	(-1,2)	(0,5)	(-196,0)	(-414,0)	(7,2)	(-366,2)	(1,4)	(-54,0)	(-421,1)	(-16,2)	
L1D 368>	(-1,9)	(-368,17)	(0,6)	(-306,1)	(-396,1)	(-7,1)	(1,2)	(-215,1)	(-367,5)	(7,1)	(2,1)	(-2,1)	(1,0)	(1,0)	(1,0)	(1,0)	
L1D 369>	(-362,42)	(-385,4)	(-7,93)	(7,57)	(-369,30)	(0,9)	(-368,3)	(11,1)	(-126,1)	(-1,3)	(1,6)	(-423,1)	(-472,1)	(-216,1)	(-36,1)	(18,3)	
L1D 370>	(-369,3)	(-370,29)	(0,6)	(-1,9)	(1,7)	(-220,1)	(7,1)	(1,0)	(1,0)	(1,0)	(1,0)	(1,0)	(1,0)	(1,0)	(1,0)	(1,0)	
L1D 371>	(7,88)	(-378,3)	(-387,1)	(-371,1)	(-360,1)	(0,6)	(-117,1)	(-18,1)	(-1,0)	(-63,0)	(-90,0)	(-506,0)	(-380,0)	(-270,0)	(1,0)	(1,0)	
L1D 372>	(-372,18)	(1,6)	(0,4)	(-1,9)	(-371,5)	(-281,1)	(-402,1)	(7,2)	(-473,1)	(-263,1)	(1,0)	(1,0)	(1,0)	(1,0)	(1,0)	(1,0)	
L1D 373>	(-1,5)	(0,1)	(1,11)	(-425,1)	(-373,18)	(-372,5)	(-48,1)	(7,1)	(1,0)	(1,0)	(1,0)	(1,0)	(1,0)	(1,0)	(1,0)	(1,0)	
L1D 374>	(0,3)	(-373,6)	(-1,12)	(-374,17)	(-92,1)	(1,7)	(-441,1)	(-449,1)	(7,4)	(2,1)	(-351,1)	(1,0)	(1,0)	(1,0)	(1,0)	(1,0)	
L1D 375>	(-375,30)	(-1,6)	(0,3)	(1,5)	(-374,8)	(-474,1)	(7,1)	(1,0)	(1,0)	(1,0)	(1,0)	(1,0)	(1,0)	(1,0)	(1,0)	(1,0)	
L1D 376>	(-369,49)	(-7,81)	(-288,2)	(0,9)	(-385,8)	(-376,18)	(-1,1)	(-259,1)	(-97,1)	(-25,2)	(-261,1)	(18,3)	(-315,1)	(-16,1)	(-63,1)	(1,8)	
L1D 377>	(-1,5)	(-377,21)	(0,3)	(-343,1)	(-376,8)	(-403,1)	(1,7)	(-443,1)	(-54,2)	(1,0)	(1,0)	(1,0)	(1,0)	(1,0)	(1,0)	(1,0)	
L1D 378>	(-7,89)	(7,59)	(-54,1)	(-385,6)	(-377,2)	(-371,34)	(-173,1)	(-378,18)	(-79,1)	(0,8)	(-146,1)	(-360,1)	(1,2)	(-25,1)	(-376,2)	(-466,0)	
L1D 379>	(-1,8)	(-379,18)	(0,1)	(1,8)	(-441,1)	(-378,2)	(-475,1)	(2,1)	(1,0)	(1,0)	(1,0)	(1,0)	(1,0)	(1,0)	(1,0)	(1,0)	
L1D 380>	(0,4)	(7,103)	(-200,1)	(-378,1)	(-11,1)	(36,0)	(-379,2)	(-387,2)	(-369,2)	(1,0)	(-362,0)	(-54,1)	(-297,1)	(-47,0)	(-380,6)	(-207,1)	
L1D 381>	(-381,27)	(0,4)	(-402,1)	(-1,5)	(1,8)	(-391,1)	(35,1)	(-380,2)	(1,0)	(1,0)	(1,0)	(1,0)	(1,0)	(1,0)	(1,0)	(1,0)	
L1D 382>	(-1,4)	(2,3)	(-382,21)	(0,3)	(1,6)	(-381,3)	(7,1)	(1,0)	(1,0)	(1,0)	(1,0)	(1,0)	(1,0)	(1,0)	(1,0)	(1,0)	
L1D 383>	(0,4)	(-355,1)	(1,8)	(-382,3)	(-1,4)	(-383,17)	(7,3)	(1,0)	(1,0)	(1,0)	(1,0)	(1,0)	(1,0)	(1,0)	(1,0)	(1,0)	
L1D 384>	(-384,14)	(-1,6)	(0,6)	(1,5)	(-383,5)	(7,2)	(1,0)	(1,0)	(1,0)	(1,0)	(1,0)	(1,0)	(1,0)	(1,0)	(1,0)	(1,0)	
L1D 385>	(-378,48)	(-7,70)	(-25,2)	(0,4)	(-385,15)	(7,2)	(-384,2)	(-367,1)	(-376,5)	(18,1)	(-304,1)	(-1,4)	(11,1)	(-124,1)	(-115,1)	(1,3)	
L1D 386>	(-386,18)	(0,10)	(1,6)	(-363,1)	(-1,3)	(-385,2)	(-246,1)	(1,0)	(1,0)	(1,0)	(1,0)	(1,0)	(1,0)	(1,0)	(1,0)	(1,0)	
L1D 387>	(0,6)	(-387,13)	(-7,81)	(-380,34)	(7,40)	(-290,1)	(-1,2)	(-297,1)	(-18,1)	(29,1)	(-25,1)	(-396,1)	(1,4)	(-385,1)	(-110,0)	(-394,3)	
L1D 388>	(-388,24)	(-402,1)	(-1,6)	(1,8)	(0,3)	(-387,4)	(-162,2)	(7,3)	(2,1)	(1,0)	(1,0)	(1,0)	(1,0)	(1,0)	(1,0)	(1,0)	
L1D 389>	(7,114)	(-388,2)	(-378,1)	(0,5)	(9,4)	(-398,0)	(-389,5)	(-396,4)	(-18,2)	(-9,0)	(-2,0)	(1,1)	(-279,0)	(18,0)	(-11,0)	(-162,0)	
L1D 390>	(-1,7)	(-408,1)	(-390,18)	(1,7)	(0,3)	(-452,1)	(-389,1)	(1,0)	(1,0)	(1,0)	(1,0)	(1,0)	(1,0)	(1,0)	(1,0)	(1,0)	
L1D 391>	(0,4)	(-391,25)	(-1,7)	(-390,5)	(47,1)	(44,1)	(-409,1)	(-381,1)	(7,2)	(1,2)	(-479,1)	(1,0)	(1,0)	(1,0)	(1,0)	(1,0)	
L1D 392>	(0,6)	(-392,24)	(-391,7)	(-1,5)	(-264,1)	(1,4)	(22,1)	(1,0)	(1,0)	(1,0)	(1,0)	(1,0)	(1,0)	(1,0)	(1,0)	(1,0)	
L1D 393>	(0,11)	(1,7)	(-393,20)	(-1,3)	(7,2)	(2,1)	(-400,1)	(-247,1)	(-391,1)	(-392,1)	(-259,1)	(1,0)	(1,0)	(1,0)	(1,0)	(1,0)	
L1D 394>	(-387,65)	(-7,91)	(1,6)	(-268,1)	(0,9)	(-394,22)	(-160,1)	(69,2)	(-1,5)	(-322,1)	(-25,6)	(-16,2)	(-207,3)	(-385,2)	(-297,1)	(-403,2)	
L1D 395>	(-1,3)	(-394,11)	(1,6)	(-408,1)	(-395,16)	(0,4)	(-361,1)	(-272,1)	(-323,1)	(1,0)	(1,0)	(1,0)	(1,0)	(1,0)	(1,0)	(1,0)	
L1D 396>	(-7,72)	(-389,36)	(-403,8)	(54,1)	(-396,23)	(7,55)	(-306,1)	(-1,5)	(1,1)	(2,1)	(-394,2)	(-18,2)	(-25,4)	(-378,1)	(0,9)	(11,0)	
L1D 397>	(114,1)	(1,8)	(0,7)	(-397,18)	(7,1)	(-1,2)	(3,2)	(-396,5)	(1,0)	(1,0)	(1,0)	(1,0)	(1,0)	(1,0)	(1,0)	(1,0)	
L1D 398>	(7,113)	(-216,2)	(-317,1)	(-261,0)	(-398,3)	(-326,0)	(-99,0)	(-162,0)	(-9,1)	(-405,2)	(0,2)	(-81,0)	(-324,1)	(-1,0)	(1,0)	(1,0)	
L1D 399>	(-1,7)	(1,8)	(-399,18)	(-398,5)	(0,4)	(-403,1)	(-220,1)	(1,0)	(1,0)	(1,0)	(1,0)	(1,0)	(1,0)	(1,0)	(1,0)	(1,0)	
L1D 400>	(-1,6)	(-400,18)	(-414,1)	(0,6)	(1,3)	(7,2)	(-399,2)	(-128,1)	(1,0)	(1,0)	(1,0)	(1,0)	(1,0)	(1,0)	(1,0)	(1,0)	
L1D 401>	(-400,7)	(0,5)	(-1,4)	(7,1)	(-136,1)	(1,8)	(-412,1)	(-401,16)	(-306,1)	(-54,1)	(1,0)	(1,0)	(1,0)	(1,0)	(1,0)	(1,0)	
L1D 402>	(-1,10)	(2,1)	(-402,16)	(-412,1)	(0,5)	(-401,5)	(1,9)	(-2,1)	(1,0)	(1,0)	(1,0)	(1,0)	(1,0)	(1,0)	(1,0)	(1,0)	
L1D 403>	(-1,4)	(-7,73)	(-396,62)	(-403,22)	(-477,1)	(0,6)	(-79,1)	(-25,5)	(-18,3)	(-402,5)	(-16,1)	(-106,1)	(1,3)	(9,4)	(-376,1)	(-450,1)	
L1D 404>	(0,3)	(-404,13)	(-1,4)	(1,7)	(-414,1)	(-403,4)	(-401,1)	(-407,1)	(1,0)	(1,0)	(1,0)	(1,0)	(1,0)	(1,0)	(1,0)	(1,0)	
L1D 405>	(-7,109)	(-1,6)	(-398,51)	(7,60)	(-295,3)	(0,14)	(-160,1)	(-405,17)	(-360,1)	(-2,2)	(-349,1)	(-412,12)	(-81,1)	(-9,2)	(1,2)	(-495,1)	
L1D 406>	(-406,15)	(1,4)	(7,2)	(0,4)	(-1,5)	(20,1)	(19,1)	(-405,6)	(2,1)	(-81,1)	(6,1)	(1,0)	(1,0)	(1,0)	(1,0)	(1,0)	
L1D 407>	(0,2)	(7,70)	(-261,0)	(-414,0)	(9,0)	(-45,0)	(-360,0)	(18,0)	(-406,0)	(-495,0)	(-423,0)	(-27,0)	(-407,1)	(-1,0)	(-146,0)	(-324,0)	
L1D 408>	(-408,14)	(-1,4)	(0,4)	(1,6)	(-407,1)	(1,0)	(1,0)	(1,0)	(1,0)	(1,0)	(1,0)	(1,0)	(1,0)	(1,0)	(1,0)	(1,0)	
L1D 409>	(-409,19)	(43,1)	(42,1)	(-419,1)	(-1,3)	(1,4)	(-408,2)	(7,1)	(1,0)	(1,0)	(1,0)	(1,0)	(1,0)	(1,0)	(1,0)	(1,0)	
L1D 410>	(-1,2)	(1,8)	(-82,1)	(-420,1)	(0,3)	(-410,11)	(-409,3)	(-408,1)	(-481,1)	(-414,1)	(1,0)	(1,0)	(1,0)	(1,0)	(1,0)	(1,0)	
L1D 411>	(-1,7)	(-137,1)	(-410,3)	(-7,1)	(0,4)	(1,4)	(-411,14)	(-409,1)	(7,3)	(1,0)	(1,0)	(1,0)	(1,0)	(1,0)	(1,0)	(1,0)	
L1D 412>	(-412,20)	(-88,3)	(-7,76)	(-405,72)	(-331,5)	(1,5)	(0,6)	(-16,1)	(-79,1)	(-367,1)	(-99,2)	(-324,3)	(-151,1)	(-72,1)	(-25,1)	(-1,6)	
L1D 413>	(-412,2)	(0,5)	(1,4)	(-413,17)	(7,1)	(9,1)	(-1,4)	(1,0)	(1,0)	(1,0)	(1,0)	(1,0)	(1,0)	(1,0)	(1,0)	(1,0)	
L1D 414>	(-7,97)	(7,54)	(90,1)	(-421,5)	(-414,18)	(-367,2)	(0,8)	(-407,48)	(-360,1)	(-423,1)	(-413,2)	(1,1)	(-268,1)	(-52,1)	(-353,1)	(-164,1)	
L1D 415>	(0,4)	(1,5)	(-420,1)	(-1,3)	(-414,6)	(-415,13)	(7,1)	(1,0)	(1,0)	(1,0)	(1,0)	(1,0)	(1,0)	(1,0)	(1,0)	(1,0)	
L1D 416>	(-9,1)	(7,116)	(0,3)	(-334,1)	(-423,2)	(-416,1)	(36,0)	(-504,0)	(-414,0)	(-198,0)	(-90,2)	(-360,0)	(-353,0)	(-497,0)	(-218,0)	(27,0)	
L1D 417>	(-416,4)	(1,6)	(22,1)	(19,1)	(-422,1)	(-417,14)	(-1,5)	(-470,1)	(7,2)	(1,0)	(1,0)	(1,0)	(1,0)	(1,0)	(1,0)	(1,0)	
L1D 418>	(-418,12)	(0,2)	(-1,2)	(1,3)	(-417,4)	(-252,1)	(7,1)	(1,0)	(1,0)	(1,0)	(1,0)	(1,0)	(1,0)	(1,0)	(1,0)	(1,0)	
L1D 419>	(-1,4)	(1,4)	(0,4)	(-419,15)	(-418,5)	(-471,1)	(1,0)	(1,0)	(1,0)	(1,0)	(1,0)	(1,0)	(1,0)	(1,0)	(1,0)	(1,0)	
L1D 420>	(-1,4)	(1,7)	(0,2)	(-420,12)	(-419,1)	(-360,1)	(1,0)	(1,0)	(1,0)	(1,0)	(1,0)	(1,0)	(1,0)	(1,0)	(1,0)	(1,0)	
L1D 421>	(-7,83)	(-61,3)	(-421,14)	(-414,50)	(9,1)	(-420,4)	(-430,1)	(-261,1)	(-367,2)	(0,2)	(-331,1)	(-268,1)	(-1,2)	(-423,1)	(-324,1)	(-54,1)	
L1D 422>	(0,5)	(-424,1)	(-421,1)	(-422,14)	(7,7)	(2,1)	(-482,1)	(-1,2)	(-106,1)	(1,0)	(1,0)	(1,0)	(1,0)	(1,0)	(1,0)	(1,0)	
L1D 423>	(7,48)	(-414,1)	(-7,70)	(29,2)	(-423,11)	(-416,25)	(0,4)	(-90,1)	(1,3)	(-36,1)	(36,1)	(-421,3)	(-504,1)	(-56,0)	(-430,4)	(-250,0)	
L1D 424>	(0,2)	(-424,8)	(-1,5)	(1,4)	(-423,1)	(1,0)	(1,0)	(1,0)	(1,0)	(1,0)	(1,0)	(1,0)	(1,0)	(1,0)	(1,0)	(1,0)	
L1D 425>	(-493,1)	(7,111)	(-424,1)	(61,0)	(54,1)	(-432,5)	(0,4)	(-369,0)	(-308,0)	(-495,0)	(-306,0)	(-506,0)	(1,0)	(-72,0)	(-335,0)	(-441,3)	
L1D 426>	(1,5)	(3,1)	(-426,9)	(-425,4)	(0,1)	(-337,1)	(7,2)	(-1,2)	(-196,1)	(1,0)	(1,0)	(1,0)	(1,0)	(1,0)	(1,0)	(1,0)	
L1D 427>	(1,3)	(-427,14)	(-431,1)	(-421,1)	(-7,1)	(0,3)	(-1,3)	(-426,3)	(7,1)	(1,0)	(1,0)	(1,0)	(1,0)	(1,0)	(1,0)	(1,0)	
L1D 428>	(-1,2)	(1,4)	(-428,13)	(0,3)	(-28,1)	(-427,3)	(-261,1)	(1,0)	(1,0)	(1,0)	(1,0)	(1,0)	(1,0)	(1,0)	(1,0)	(1,0)	
L1D 429>	(0,2)	(-1,3)	(1,7)	(-429,8)	(-428,4)	(1,0)	(1,0)	(1,0)	(1,0)	(1,0)	(1,0)	(1,0)	(1,0)	(1,0)	(1,0)	(1,0)	
L1D 430>	(-7,76)	(1,3)	(-423,62)	(-90,4)	(-421,2)	(-430,21)	(-97,6)	(7,1)	(0,5)	(29,3)	(-349,1)	(-36,2)	(-322,1)	(-1,6)	(-414,1)	(-205,1)	
L1D 431>	(0,3)	(-431,9)	(-430,2)	(-1,4)	(7,2)	(1,5)	(2,1)	(-2,1)	(1,0)	(1,0)	(1,0)	(1,0)	(1,0)	(1,0)	(1,0)	(1,0)	
L1D 432>	(-7,103)	(7,75)	(-425,45)	(-342,2)	(-349,4)	(0,18)	(-315,1)	(-432,24)	(1,1)	(54,2)	(-322,1)	(-431,4)	(45,2)	(-72,1)	(-439,12)	(-88,1)	
L1D 433>	(-432,3)	(1,5)	(0,4)	(-433,11)	(-1,5)	(1,0)	(1,0)	(1,0)	(1,0)	(1,0)	(1,0)	(1,0)	(1,0)	(1,0)	(1,0)	(1,0)	
L1D 434>	(7,110)	(-432,3)	(-504,1)	(-441,3)	(-324,1)	(-360,6)	(-495,1)	(0,5)	(-27,0)	(-425,0)	(-9,0)	(-434,4)	(-353,0)	(-405,0)	(2,0)	(1,0)	
L1D 435>	(-435,5)	(-1,5)	(1,6)	(0,4)	(-350,1)	(7,1)	(-434,2)	(1,0)	(1,0)	(1,0)	(1,0)	(1,0)	(1,0)	(1,0)	(1,0)	(1,0)	
L1D 436>	(-435,3)	(0,2)	(-183,1)	(-436,10)	(1,3)	(-1,3)	(1,0)	(1,0)	(1,0)	(1,0)	(1,0)	(1,0)	(1,0)	(1,0)	(1,0)	(1,0)	
L1D 437>	(1,6)	(-1,2)	(-437,8)	(-436,3)	(1,0)	(1,0)	(1,0)	(1,0)	(1,0)	(1,0)	(1,0)	(1,0)	(1,0)	(1,0)	(1,0)	(1,0)	
L1D 438>	(-1,5)	(1,5)	(0,2)	(-438,12)	(-485,1)	(-437,3)	(1,0)	(1,0)	(1,0)	(1,0)	(1,0)	(1,0)	(1,0)	(1,0)	(1,0)	(1,0)	
L1D 439>	(-7,78)	(0,5)	(-432,56)	(-438,1)	(-115,0)	(-288,0)	(-178,0)	(-441,1)	(-439,14)	(45,0)	(-79,0)	(-1,1)	(-349,2)	(-142,0)	(-486,0)	(47,0)	
L1D 440>	(1,7)	(-443,1)	(-440,12)	(0,3)	(-1,2)	(-479,1)	(-439,1)	(1,0)	(1,0)	(1,0)	(1,0)	(1,0)	(1,0)	(1,0)	(1,0)	(1,0)	
L1D 441>	(-7,79)	(-232,1)	(7,47)	(-434,45)	(-272,1)	(-441,16)	(0,12)	(-331,1)	(-425,4)	(54,3)	(-440,3)	(-448,8)	(-299,1)	(-61,1)	(-360,6)	(-439,4)	
L1D 442>	(-441,7)	(-1,2)	(-442,10)	(1,3)	(7,4)	(-189,1)	(1,0)	(1,0)	(1,0)	(1,0)	(1,0)	(1,0)	(1,0)	(1,0)	(1,0)	(1,0)	
L1D 443>	(7,92)	(0,9)	(-450,11)	(-443,4)	(-38,0)	(-442,0)	(-171,0)	(-474,0)	(-1,0)	(-92,0)	(-288,0)	(-182,0)	(-110,0)	(-495,0)	(-72,0)	(1,0)	
L1D 444>	(0,2)	(-443,4)	(-444,10)	(-482,1)	(1,1)	(-1,1)	(1,0)	(1,0)	(1,0)	(1,0)	(1,0)	(1,0)	(1,0)	(1,0)	(1,0)	(1,0)	
L1D 445>	(1,6)	(0,4)	(-445,10)	(-7,1)	(-1,5)	(-444,1)	(-366,1)	(-81,3)	(1,0)	(1,0)	(1,0)	(1,0)	(1,0)	(1,0)	(1,0)	(1,0)	
L1D 446>	(-447,1)	(-446,9)	(0,3)	(-483,1)	(-445,5)	(1,2)	(-243,1)	(1,0)	(1,0)	(1,0)	(1,0)	(1,0)	(1,0)	(1,0)	(1,0)	(1,0)	
L1D 447>	(0,4)	(-447,9)	(-1,6)	(1,5)	(-486,1)	(-446,1)	(1,0)	(1,0)	(1,0)	(1,0)	(1,0)	(1,0)	(1,0)	(1,0)	(1,0)	(1,0)	
L1D 448>	(-7,41)	(-441,33)	(-448,13)	(47,1)	(-117,2)	(1,3)	(-432,2)	(-124,1)	(-367,4)	(-439,3)	(-447,2)	(-1,5)	(-324,1)	(-360,1)	(0,3)	(-214,1)	
L1D 449>	(-1,2)	(-449,12)	(0,1)	(7,1)	(1,2)	(-448,3)	(1,0)	(1,0)	(1,0)	(1,0)	(1,0)	(1,0)	(1,0)	(1,0)	(1,0)	(1,0)	
L1D 450>	(-7,94)	(7,70)	(-443,34)	(-450,29)	(0,13)	(-459,3)	(-285,1)	(-457,3)	(-1,3)	(-387,1)	(-162,1)	(-479,1)	(-449,2)	(1,4)	(-124,1)	(-333,1)	
L1D 451>	(-1,3)	(1,4)	(-451,8)	(0,2)	(-450,3)	(-380,1)	(1,0)	(1,0)	(1,0)	(1,0)	(1,0)	(1,0)	(1,0)	(1,0)	(1,0)	(1,0)	
L1D 452>	(7,95)	(54,0)	(-243,0)	(-315,0)	(-459,3)	(-452,4)	(-450,0)	(-65,0)	(-288,0)	(1,0)	(0,4)	(-36,2)	(-451,0)	(-162,1)	(-297,0)	(-155,0)	
L1D 453>	(-452,2)	(-453,12)	(-1,2)	(0,1)	(1,4)	(7,1)	(-487,1)	(-451,1)	(1,0)	(1,0)	(1,0)	(1,0)	(1,0)	(1,0)	(1,0)	(1,0)	
L1D 454>	(-1,3)	(-454,11)	(0,1)	(-484,1)	(1,2)	(7,1)	(-3,1)	(1,0)	(1,0)	(1,0)	(1,0)	(1,0)	(1,0)	(1,0)	(1,0)	(1,0)	
L1D 455>	(0,1)	(-455,10)	(-1,1)	(1,3)	(7,1)	(-124,1)	(1,0)	(1,0)	(1,0)	(1,0)	(1,0)	(1,0)	(1,0)	(1,0)	(1,0)	(1,0)	
L1D 456>	(-456,9)	(-1,4)	(-320,1)	(0,1)	(-455,3)	(1,2)	(1,0)	(1,0)	(1,0)	(1,0)	(1,0)	(1,0)	(1,0)	(1,0)	(1,0)	(1,0)	
L1D 457>	(-450,33)	(-72,1)	(-457,11)	(-7,26)	(-504,1)	(-385,1)	(0,4)	(1,4)	(-196,1)	(-160,1)	(7,1)	(-1,1)	(-124,1)	(1,0)	(1,0)	(1,0)	
L1D 458>	(0,1)	(-458,9)	(-488,1)	(-1,1)	(-457,3)	(-312,1)	(1,0)	(1,0)	(1,0)	(1,0)	(1,0)	(1,0)	(1,0)	(1,0)	(1,0)	(1,0)	
L1D 459>	(7,36)	(-36,2)	(-452,33)	(0,4)	(-155,2)	(1,4)	(-7,80)	(-169,3)	(-288,2)	(-43,4)	(-466,1)	(-378,1)	(-97,2)	(-90,1)	(-459,14)	(-1,3)	
L1D 460>	(-1,3)	(1,3)	(-459,4)	(-460,5)	(1,0)	(1,0)	(1,0)	(1,0)	(1,0)	(1,0)	(1,0)	(1,0)	(1,0)	(1,0)	(1,0)	(1,0)	
L1D 461>	(7,109)	(-461,7)	(0,1)	(-63,1)	(-369,1)	(-126,1)	(-261,7)	(-468,1)	(-460,2)	(-297,2)	(-83,1)	(-477,0)	(-243,1)	(1,1)	(-414,1)	(-254,1)	
L1D 462>	(-462,9)	(-1,3)	(1,1)	(1,0)	(1,0)	(1,0)	(1,0)	(1,0)	(1,0)	(1,0)	(1,0)	(1,0)	(1,0)	(1,0)	(1,0)	(1,0)	
L1D 463>	(0,3)	(1,5)	(-463,9)	(-1,2)	(-486,1)	(-462,2)	(1,0)	(1,0)	(1,0)	(1,0)	(1,0)	(1,0)	(1,0)	(1,0)	(1,0)	(1,0)	
L1D 464>	(0,3)	(-464,8)	(1,2)	(-1,1)	(-463,2)	(1,0)	(1,0)	(1,0)	(1,0)	(1,0)	(1,0)	(1,0)	(1,0)	(1,0)	(1,0)	(1,0)	
L1D 465>	(-464,2)	(0,2)	(-1,2)	(-465,7)	(1,3)	(7,1)	(-362,1)	(1,0)	(1,0)	(1,0)	(1,0)	(1,0)	(1,0)	(1,0)	(1,0)	(1,0)	
L1D 466>	(-459,22)	(-1,1)	(-7,28)	(1,1)	(-466,9)	(-465,3)	(-81,1)	(-169,4)	(-162,1)	(-43,3)	(0,2)	(-288,1)	(1,0)	(1,0)	(1,0)	(1,0)	
L1D 467>	(-467,9)	(-75,1)	(-1,2)	(1,4)	(-489,1)	(-466,1)	(1,0)	(1,0)	(1,0)	(1,0)	(1,0)	(1,0)	(1,0)	(1,0)	(1,0)	(1,0)	
L1D 468>	(7,29)	(-250,1)	(0,14)	(-461,32)	(-7,56)	(-468,13)	(-439,2)	(-83,1)	(-151,1)	(-362,1)	(1,2)	(11,1)	(-414,5)	(-261,1)	(-268,2)	(-475,2)	
L1D 469>	(-1,3)	(2,1)	(-469,10)	(1,1)	(-468,1)	(1,0)	(1,0)	(1,0)	(1,0)	(1,0)	(1,0)	(1,0)	(1,0)	(1,0)	(1,0)	(1,0)	
L1D 470>	(7,97)	(-470,2)	(-252,3)	(-495,1)	(-245,0)	(-469,0)	(-477,13)	(0,7)	(-410,0)	(-198,0)	(1,0)	(1,0)	(1,0)	(1,0)	(1,0)	(1,0)	
L1D 471>	(0,3)	(-471,5)	(-1,3)	(1,2)	(-470,2)	(7,2)	(1,0)	(1,0)	(1,0)	(1,0)	(1,0)	(1,0)	(1,0)	(1,0)	(1,0)	(1,0)	
L1D 472>	(1,5)	(-471,1)	(-472,8)	(-1,3)	(0,1)	(1,0)	(1,0)	(1,0)	(1,0)	(1,0)	(1,0)	(1,0)	(1,0)	(1,0)	(1,0)	(1,0)	
L1D 473>	(-473,6)	(-92,1)	(-1,3)	(-472,2)	(1,4)	(1,0)	(1,0)	(1,0)	(1,0)	(1,0)	(1,0)	(1,0)	(1,0)	(1,0)	(1,0)	(1,0)	
L1D 474>	(0,1)	(-473,2)	(-474,6)	(1,1)	(-2,1)	(-1,1)	(1,0)	(1,0)	(1,0)	(1,0)	(1,0)	(1,0)	(1,0)	(1,0)	(1,0)	(1,0)	
L1D 475>	(-468,19)	(-7,24)	(-90,1)	(-394,1)	(0,5)	(-1,1)	(-414,1)	(-268,2)	(-474,3)	(-261,2)	(-475,9)	(1,2)	(-459,1)	(-421,1)	(1,0)	(1,0)	
L1D 476>	(-1,1)	(-476,7)	(1,3)	(-475,2)	(1,0)	(1,0)	(1,0)	(1,0)	(1,0)	(1,0)	(1,0)	(1,0)	(1,0)	(1,0)	(1,0)	(1,0)	
L1D 477>	(7,46)	(-7,74)	(-470,29)	(0,9)	(1,1)	(-477,17)	(-506,1)	(-252,3)	(-45,0)	(-52,2)	(-1,0)	(-43,1)	(-259,1)	(-484,5)	(-495,0)	(-405,1)	
L1D 478>	(1,4)	(-478,5)	(-477,2)	(0,1)	(-1,1)	(1,0)	(1,0)	(1,0)	(1,0)	(1,0)	(1,0)	(1,0)	(1,0)	(1,0)	(1,0)	(1,0)	
L1D 479>	(7,96)	(-486,6)	(0,7)	(-479,6)	(-432,3)	(-324,1)	(-54,1)	(-315,0)	(-308,0)	(-333,0)	(1,1)	(-351,0)	(-191,0)	(-81,1)	(-478,1)	(-9,1)	
L1D 480>	(-479,3)	(-480,6)	(-1,2)	(1,3)	(0,1)	(1,0)	(1,0)	(1,0)	(1,0)	(1,0)	(1,0)	(1,0)	(1,0)	(1,0)	(1,0)	(1,0)	
L1D 481>	(0,2)	(1,5)	(-1,2)	(-481,5)	(-480,1)	(1,0)	(1,0)	(1,0)	(1,0)	(1,0)	(1,0)	(1,0)	(1,0)	(1,0)	(1,0)	(1,0)	
L1D 482>	(0,1)	(-481,3)	(-1,3)	(1,4)	(-482,3)	(7,1)	(1,0)	(1,0)	(1,0)	(1,0)	(1,0)	(1,0)	(1,0)	(1,0)	(1,0)	(1,0)	
L1D 483>	(0,1)	(-483,3)	(1,3)	(-482,1)	(1,0)	(1,0)	(1,0)	(1,0)	(1,0)	(1,0)	(1,0)	(1,0)	(1,0)	(1,0)	(1,0)	(1,0)	
L1D 484>	(-7,55)	(0,1)	(-477,34)	(-52,1)	(-187,1)	(-484,8)	(1,3)	(-1,2)	(-259,1)	(1,0)	(1,0)	(1,0)	(1,0)	(1,0)	(1,0)	(1,0)	
L1D 485>	(-1,1)	(-485,7)	(-484,1)	(1,3)	(1,0)	(1,0)	(1,0)	(1,0)	(1,0)	(1,0)	(1,0)	(1,0)	(1,0)	(1,0)	(1,0)	(1,0)	
L1D 486>	(-7,75)	(1,3)	(-443,2)	(-29,2)	(-486,22)	(7,32)	(-479,35)	(-493,2)	(-61,2)	(0,11)	(-16,3)	(-331,1)	(-484,1)	(-133,1)	(-254,1)	(-432,3)	
L1D 487>	(0,2)	(-487,5)	(-1,1)	(1,3)	(-486,2)	(7,1)	(1,0)	(1,0)	(1,0)	(1,0)	(1,0)	(1,0)	(1,0)	(1,0)	(1,0)	(1,0)	
L1D 488>	(0,26)	(-171,10)	(7,92)	(-162,9)	(-495,15)	(-477,1)	(-225,5)	(1,1)	(-488,10)	(-315,4)	(-432,1)	(-81,3)	(-164,1)	(-324,2)	(-414,1)	(-9,4)	
L1D 489>	(-489,9)	(1,2)	(-2,1)	(-1,1)	(1,0)	(1,0)	(1,0)	(1,0)	(1,0)	(1,0)	(1,0)	(1,0)	(1,0)	(1,0)	(1,0)	(1,0)	
L1D 490>	(-490,6)	(-1,1)	(1,3)	(1,0)	(1,0)	(1,0)	(1,0)	(1,0)	(1,0)	(1,0)	(1,0)	(1,0)	(1,0)	(1,0)	(1,0)	(1,0)	
L1D 491>	(-491,5)	(-1,2)	(0,2)	(1,1)	(-490,2)	(1,0)	(1,0)	(1,0)	(1,0)	(1,0)	(1,0)	(1,0)	(1,0)	(1,0)	(1,0)	(1,0)	
L1D 492>	(1,4)	(-491,1)	(-492,5)	(10,2)	(1,0)	(1,0)	(1,0)	(1,0)	(1,0)	(1,0)	(1,0)	(1,0)	(1,0)	(1,0)	(1,0)	(1,0)	
L1D 493>	(-7,37)	(0,1)	(-486,18)	(-1,2)	(-16,3)	(-439,1)	(1,1)	(-493,5)	(-492,1)	(6,1)	(-246,1)	(-232,1)	(1,0)	(1,0)	(1,0)	(1,0)	
L1D 494>	(-494,7)	(-1,1)	(3,1)	(0,1)	(7,1)	(1,0)	(1,0)	(1,0)	(1,0)	(1,0)	(1,0)	(1,0)	(1,0)	(1,0)	(1,0)	(1,0)	
L1D 495>	(-7,39)	(7,15)	(-495,13)	(-488,29)	(0,19)	(-178,1)	(-171,1)	(-412,1)	(-324,1)	(-414,2)	(-331,1)	(-459,1)	(-61,1)	(-407,1)	(-322,1)	(1,2)	
L1D 496>	(1,4)	(0,1)	(-496,2)	(1,0)	(1,0)	(1,0)	(1,0)	(1,0)	(1,0)	(1,0)	(1,0)	(1,0)	(1,0)	(1,0)	(1,0)	(1,0)	
L1D 497>	(7,126)	(-369,4)	(-36,4)	(0,21)	(-81,3)	(-497,11)	(-18,5)	(-423,3)	(-432,2)	(-234,2)	(-504,26)	(-9,6)	(-227,1)	(-407,1)	(-495,1)	(-506,1)	
L1D 498>	(-498,5)	(-1,1)	(1,2)	(-497,1)	(1,0)	(1,0)	(1,0)	(1,0)	(1,0)	(1,0)	(1,0)	(1,0)	(1,0)	(1,0)	(1,0)	(1,0)	
L1D 499>	(0,1)	(-498,1)	(-499,3)	(-1,1)	(1,0)	(1,0)	(1,0)	(1,0)	(1,0)	(1,0)	(1,0)	(1,0)	(1,0)	(1,0)	(1,0)	(1,0)	
L1D 500>	(1,3)	(-500,6)	(-1,1)	(1,0)	(1,0)	(1,0)	(1,0)	(1,0)	(1,0)	(1,0)	(1,0)	(1,0)	(1,0)	(1,0)	(1,0)	(1,0)	
L1D 501>	(-1,1)	(-501,4)	(1,1)	(2,1)	(1,0)	(1,0)	(1,0)	(1,0)	(1,0)	(1,0)	(1,0)	(1,0)	(1,0)	(1,0)	(1,0)	(1,0)	
L1D 502>	(-7,11)	(-495,7)	(-421,1)	(-502,3)	(1,2)	(-180,1)	(-171,1)	(1,0)	(1,0)	(1,0)	(1,0)	(1,0)	(1,0)	(1,0)	(1,0)	(1,0)	
L1D 503>	(1,1)	(-287,1)	(-503,4)	(-12,1)	(1,0)	(1,0)	(1,0)	(1,0)	(1,0)	(1,0)	(1,0)	(1,0)	(1,0)	(1,0)	(1,0)	(1,0)	
L1D 504>	(-7,35)	(-432,1)	(-497,14)	(-504,9)	(-9,1)	(0,10)	(-414,1)	(-252,1)	(-90,1)	(-97,1)	(-486,1)	(-506,1)	(7,2)	(-493,1)	(-423,1)	(-16,1)	
L1D 505>	(0,1)	(-291,1)	(-2,1)	(1,0)	(1,0)	(1,0)	(1,0)	(1,0)	(1,0)	(1,0)	(1,0)	(1,0)	(1,0)	(1,0)	(1,0)	(1,0)	
L1D 506>	(-9,3)	(-378,29)	(-72,4)	(-371,3)	(-506,14)	(-477,7)	(-236,1)	(0,18)	(-90,5)	(-2,1)	(1,1)	(-83,2)	(-504,1)	(-36,2)	(-432,3)	(-369,1)	
L1D 507>	(-507,1)	(1,0)	(1,0)	(1,0)	(1,0)	(1,0)	(1,0)	(1,0)	(1,0)	(1,0)	(1,0)	(1,0)	(1,0)	(1,0)	(1,0)	(1,0)	
L1D 508>	(-508,3)	(1,0)	(1,0)	(1,0)	(1,0)	(1,0)	(1,0)	(1,0)	(1,0)	(1,0)	(1,0)	(1,0)	(1,0)	(1,0)	(1,0)	(1,0)	
L1D 509>	(0,1)	(-509,1)	(1,0)	(1,0)	(1,0)	(1,0)	(1,0)	(1,0)	(1,0)	(1,0)	(1,0)	(1,0)	(1,0)	(1,0)	(1,0)	(1,0)	
L1D 510>	(-510,2)	(1,0)	(1,0)	(1,0)	(1,0)	(1,0)	(1,0)	(1,0)	(1,0)	(1,0)	(1,0)	(1,0)	(1,0)	(1,0)	(1,0)	(1,0)	
L1D 511>	(0,1)	(-504,1)	(1,0)	(1,0)	(1,0)	(1,0)	(1,0)	(1,0)	(1,0)	(1,0)	(1,0)	(1,0)	(1,0)	(1,0)	(1,0)	(1,0)	

DRAM Statistics
 CHANNEL 0
 RQ ROW_BUFFER_HIT:      47503  ROW_BUFFER_MISS:     144931
 DBUS_CONGESTED:      85384
 WQ ROW_BUFFER_HIT:       1545  ROW_BUFFER_MISS:       6324  FULL:          0

 AVG_CONGESTED_CYCLE: 6

CPU 0 Branch Prediction Accuracy: 93.8771% MPKI: 14.8289 Average ROB Occupancy at Mispredict: 32.4729

Branch types
NOT_BRANCH: 7577862 75.7786%
BRANCH_DIRECT_JUMP: 214563 2.14563%
BRANCH_INDIRECT: 0 0%
BRANCH_CONDITIONAL: 1597339 15.9734%
BRANCH_DIRECT_CALL: 293837 2.93837%
BRANCH_INDIRECT_CALL: 11144 0.11144%
BRANCH_RETURN: 304980 3.0498%
BRANCH_OTHER: 0 0%

