
*** ChampSim Multicore Out-of-Order Simulator ***

Warmup Instructions: 10000000
Simulation Instructions: 10000000
Number of CPUs: 1
LLC sets: 2048
LLC ways: 16
Off-chip DRAM Size: 4096 MB Channels: 1 Width: 64-bit Data Rate: 3200 MT/s

CPU 0 runs ./lpf-traces//607.cactuBSSN_s-3477B.champsimtrace.xz
CPU 0 Bimodal branch predictor
Heartbeat CPU 0 instructions: 10000000 cycles: 4799162 heartbeat IPC: 2.0837 cumulative IPC: 2.0837 (Simulation time: 0 hr 0 min 46 sec) 

Warmup complete CPU 0 instructions: 10000003 cycles: 4799163 (Simulation time: 0 hr 0 min 46 sec) 

Heartbeat CPU 0 instructions: 20000001 cycles: 12214210 heartbeat IPC: 1.34861 cumulative IPC: 1.34861 (Simulation time: 0 hr 1 min 25 sec) 
Finished CPU 0 instructions: 10000002 cycles: 7415048 cumulative IPC: 1.34861 (Simulation time: 0 hr 1 min 25 sec) 

ChampSim completed all CPUs

Region of Interest Statistics

CPU 0 cumulative IPC: 1.34861 instructions: 10000002 cycles: 7415048
L1D TOTAL     ACCESS:    5680769  HIT:    4460511  MISS:    1220258
L1D LOAD      ACCESS:    3123791  HIT:    2440979  MISS:     682812
L1D RFO       ACCESS:     784131  HIT:     718364  MISS:      65767
L1D PREFETCH  ACCESS:    1772847  HIT:    1301168  MISS:     471679
L1D WRITEBACK ACCESS:          0  HIT:          0  MISS:          0
L1D PREFETCH  REQUESTED:   20550703  ISSUED:    9422548  USEFUL:      41939  USELESS:     429702
L1D AVERAGE MISS LATENCY: 23.112 cycles
L1I TOTAL     ACCESS:    1386822  HIT:    1097587  MISS:     289235
L1I LOAD      ACCESS:    1386822  HIT:    1097587  MISS:     289235
L1I RFO       ACCESS:          0  HIT:          0  MISS:          0
L1I PREFETCH  ACCESS:          0  HIT:          0  MISS:          0
L1I WRITEBACK ACCESS:          0  HIT:          0  MISS:          0
L1I PREFETCH  REQUESTED:          0  ISSUED:          0  USEFUL:          0  USELESS:          0
L1I AVERAGE MISS LATENCY: 14.2538 cycles
L2C TOTAL     ACCESS:    1985477  HIT:    1931856  MISS:      53621
L2C LOAD      ACCESS:     955881  HIT:     950801  MISS:       5080
L2C RFO       ACCESS:      65536  HIT:      59674  MISS:       5862
L2C PREFETCH  ACCESS:     888728  HIT:     846056  MISS:      42672
L2C WRITEBACK ACCESS:      75332  HIT:      75325  MISS:          7
L2C PREFETCH  REQUESTED:     450830  ISSUED:     446727  USEFUL:      41557  USELESS:       1148
L2C AVERAGE MISS LATENCY: 169.908 cycles
LLC TOTAL     ACCESS:      59425  HIT:      32866  MISS:      26559
LLC LOAD      ACCESS:       4981  HIT:       2446  MISS:       2535
LLC RFO       ACCESS:       5862  HIT:          0  MISS:       5862
LLC PREFETCH  ACCESS:      42771  HIT:      24613  MISS:      18158
LLC WRITEBACK ACCESS:       5811  HIT:       5807  MISS:          4
LLC PREFETCH  REQUESTED:          0  ISSUED:          0  USEFUL:       1601  USELESS:      14809
LLC AVERAGE MISS LATENCY: 281.604 cycles
Major fault: 0 Minor fault: 1064

L1D -512>	(-138,0)	(-20,0)	(88,0)	(0,0)	(2,0)	(-172,0)	(171,0)	(82,0)	(1,122)	(172,0)	(-10,0)	(344,0)	(-7,0)	(-2,0)	(-345,0)	(-6,0)	
L1D -511>	(1,0)	(1,0)	(1,0)	(1,0)	(1,0)	(1,0)	(1,0)	(1,0)	(1,0)	(1,0)	(1,0)	(1,0)	(1,0)	(1,0)	(1,0)	(1,0)	
L1D -510>	(1,0)	(1,0)	(1,0)	(1,0)	(1,0)	(1,0)	(1,0)	(1,0)	(1,0)	(1,0)	(1,0)	(1,0)	(1,0)	(1,0)	(1,0)	(1,0)	
L1D -509>	(1,0)	(1,0)	(1,0)	(1,0)	(1,0)	(1,0)	(1,0)	(1,0)	(1,0)	(1,0)	(1,0)	(1,0)	(1,0)	(1,0)	(1,0)	(1,0)	
L1D -508>	(1,0)	(1,0)	(1,0)	(1,0)	(1,0)	(1,0)	(1,0)	(1,0)	(1,0)	(1,0)	(1,0)	(1,0)	(1,0)	(1,0)	(1,0)	(1,0)	
L1D -507>	(1,0)	(1,0)	(1,0)	(1,0)	(1,0)	(1,0)	(1,0)	(1,0)	(1,0)	(1,0)	(1,0)	(1,0)	(1,0)	(1,0)	(1,0)	(1,0)	
L1D -506>	(1,0)	(1,0)	(1,0)	(1,0)	(1,0)	(1,0)	(1,0)	(1,0)	(1,0)	(1,0)	(1,0)	(1,0)	(1,0)	(1,0)	(1,0)	(1,0)	
L1D -505>	(1,0)	(1,0)	(1,0)	(1,0)	(1,0)	(1,0)	(1,0)	(1,0)	(1,0)	(1,0)	(1,0)	(1,0)	(1,0)	(1,0)	(1,0)	(1,0)	
L1D -504>	(1,0)	(1,0)	(1,0)	(1,0)	(1,0)	(1,0)	(1,0)	(1,0)	(1,0)	(1,0)	(1,0)	(1,0)	(1,0)	(1,0)	(1,0)	(1,0)	
L1D -503>	(1,0)	(1,0)	(1,0)	(1,0)	(1,0)	(1,0)	(1,0)	(1,0)	(1,0)	(1,0)	(1,0)	(1,0)	(1,0)	(1,0)	(1,0)	(1,0)	
L1D -502>	(1,0)	(1,0)	(1,0)	(1,0)	(1,0)	(1,0)	(1,0)	(1,0)	(1,0)	(1,0)	(1,0)	(1,0)	(1,0)	(1,0)	(1,0)	(1,0)	
L1D -501>	(1,0)	(1,0)	(1,0)	(1,0)	(1,0)	(1,0)	(1,0)	(1,0)	(1,0)	(1,0)	(1,0)	(1,0)	(1,0)	(1,0)	(1,0)	(1,0)	
L1D -500>	(1,0)	(1,0)	(1,0)	(1,0)	(1,0)	(1,0)	(1,0)	(1,0)	(1,0)	(1,0)	(1,0)	(1,0)	(1,0)	(1,0)	(1,0)	(1,0)	
L1D -499>	(1,0)	(1,0)	(1,0)	(1,0)	(1,0)	(1,0)	(1,0)	(1,0)	(1,0)	(1,0)	(1,0)	(1,0)	(1,0)	(1,0)	(1,0)	(1,0)	
L1D -498>	(1,0)	(1,0)	(1,0)	(1,0)	(1,0)	(1,0)	(1,0)	(1,0)	(1,0)	(1,0)	(1,0)	(1,0)	(1,0)	(1,0)	(1,0)	(1,0)	
L1D -497>	(1,0)	(1,0)	(1,0)	(1,0)	(1,0)	(1,0)	(1,0)	(1,0)	(1,0)	(1,0)	(1,0)	(1,0)	(1,0)	(1,0)	(1,0)	(1,0)	
L1D -496>	(1,0)	(1,0)	(1,0)	(1,0)	(1,0)	(1,0)	(1,0)	(1,0)	(1,0)	(1,0)	(1,0)	(1,0)	(1,0)	(1,0)	(1,0)	(1,0)	
L1D -495>	(1,0)	(1,0)	(1,0)	(1,0)	(1,0)	(1,0)	(1,0)	(1,0)	(1,0)	(1,0)	(1,0)	(1,0)	(1,0)	(1,0)	(1,0)	(1,0)	
L1D -494>	(1,0)	(1,0)	(1,0)	(1,0)	(1,0)	(1,0)	(1,0)	(1,0)	(1,0)	(1,0)	(1,0)	(1,0)	(1,0)	(1,0)	(1,0)	(1,0)	
L1D -493>	(1,0)	(1,0)	(1,0)	(1,0)	(1,0)	(1,0)	(1,0)	(1,0)	(1,0)	(1,0)	(1,0)	(1,0)	(1,0)	(1,0)	(1,0)	(1,0)	
L1D -492>	(1,0)	(1,0)	(1,0)	(1,0)	(1,0)	(1,0)	(1,0)	(1,0)	(1,0)	(1,0)	(1,0)	(1,0)	(1,0)	(1,0)	(1,0)	(1,0)	
L1D -491>	(1,0)	(1,0)	(1,0)	(1,0)	(1,0)	(1,0)	(1,0)	(1,0)	(1,0)	(1,0)	(1,0)	(1,0)	(1,0)	(1,0)	(1,0)	(1,0)	
L1D -490>	(1,0)	(1,0)	(1,0)	(1,0)	(1,0)	(1,0)	(1,0)	(1,0)	(1,0)	(1,0)	(1,0)	(1,0)	(1,0)	(1,0)	(1,0)	(1,0)	
L1D -489>	(1,0)	(1,0)	(1,0)	(1,0)	(1,0)	(1,0)	(1,0)	(1,0)	(1,0)	(1,0)	(1,0)	(1,0)	(1,0)	(1,0)	(1,0)	(1,0)	
L1D -488>	(1,0)	(1,0)	(1,0)	(1,0)	(1,0)	(1,0)	(1,0)	(1,0)	(1,0)	(1,0)	(1,0)	(1,0)	(1,0)	(1,0)	(1,0)	(1,0)	
L1D -487>	(1,0)	(1,0)	(1,0)	(1,0)	(1,0)	(1,0)	(1,0)	(1,0)	(1,0)	(1,0)	(1,0)	(1,0)	(1,0)	(1,0)	(1,0)	(1,0)	
L1D -486>	(1,0)	(1,0)	(1,0)	(1,0)	(1,0)	(1,0)	(1,0)	(1,0)	(1,0)	(1,0)	(1,0)	(1,0)	(1,0)	(1,0)	(1,0)	(1,0)	
L1D -485>	(-1,2)	(1,0)	(1,0)	(1,0)	(1,0)	(1,0)	(1,0)	(1,0)	(1,0)	(1,0)	(1,0)	(1,0)	(1,0)	(1,0)	(1,0)	(1,0)	
L1D -484>	(1,0)	(1,0)	(1,0)	(1,0)	(1,0)	(1,0)	(1,0)	(1,0)	(1,0)	(1,0)	(1,0)	(1,0)	(1,0)	(1,0)	(1,0)	(1,0)	
L1D -483>	(99,1)	(1,0)	(1,0)	(1,0)	(1,0)	(1,0)	(1,0)	(1,0)	(1,0)	(1,0)	(1,0)	(1,0)	(1,0)	(1,0)	(1,0)	(1,0)	
L1D -482>	(1,1)	(1,0)	(1,0)	(1,0)	(1,0)	(1,0)	(1,0)	(1,0)	(1,0)	(1,0)	(1,0)	(1,0)	(1,0)	(1,0)	(1,0)	(1,0)	
L1D -481>	(1,0)	(1,0)	(1,0)	(1,0)	(1,0)	(1,0)	(1,0)	(1,0)	(1,0)	(1,0)	(1,0)	(1,0)	(1,0)	(1,0)	(1,0)	(1,0)	
L1D -480>	(1,0)	(1,0)	(1,0)	(1,0)	(1,0)	(1,0)	(1,0)	(1,0)	(1,0)	(1,0)	(1,0)	(1,0)	(1,0)	(1,0)	(1,0)	(1,0)	
L1D -479>	(1,0)	(1,0)	(1,0)	(1,0)	(1,0)	(1,0)	(1,0)	(1,0)	(1,0)	(1,0)	(1,0)	(1,0)	(1,0)	(1,0)	(1,0)	(1,0)	
L1D -478>	(1,0)	(1,0)	(1,0)	(1,0)	(1,0)	(1,0)	(1,0)	(1,0)	(1,0)	(1,0)	(1,0)	(1,0)	(1,0)	(1,0)	(1,0)	(1,0)	
L1D -477>	(1,0)	(1,0)	(1,0)	(1,0)	(1,0)	(1,0)	(1,0)	(1,0)	(1,0)	(1,0)	(1,0)	(1,0)	(1,0)	(1,0)	(1,0)	(1,0)	
L1D -476>	(1,0)	(1,0)	(1,0)	(1,0)	(1,0)	(1,0)	(1,0)	(1,0)	(1,0)	(1,0)	(1,0)	(1,0)	(1,0)	(1,0)	(1,0)	(1,0)	
L1D -475>	(1,0)	(1,0)	(1,0)	(1,0)	(1,0)	(1,0)	(1,0)	(1,0)	(1,0)	(1,0)	(1,0)	(1,0)	(1,0)	(1,0)	(1,0)	(1,0)	
L1D -474>	(450,1)	(1,0)	(1,0)	(1,0)	(1,0)	(1,0)	(1,0)	(1,0)	(1,0)	(1,0)	(1,0)	(1,0)	(1,0)	(1,0)	(1,0)	(1,0)	
L1D -473>	(1,0)	(1,0)	(1,0)	(1,0)	(1,0)	(1,0)	(1,0)	(1,0)	(1,0)	(1,0)	(1,0)	(1,0)	(1,0)	(1,0)	(1,0)	(1,0)	
L1D -472>	(1,0)	(1,0)	(1,0)	(1,0)	(1,0)	(1,0)	(1,0)	(1,0)	(1,0)	(1,0)	(1,0)	(1,0)	(1,0)	(1,0)	(1,0)	(1,0)	
L1D -471>	(1,0)	(1,0)	(1,0)	(1,0)	(1,0)	(1,0)	(1,0)	(1,0)	(1,0)	(1,0)	(1,0)	(1,0)	(1,0)	(1,0)	(1,0)	(1,0)	
L1D -470>	(1,0)	(1,0)	(1,0)	(1,0)	(1,0)	(1,0)	(1,0)	(1,0)	(1,0)	(1,0)	(1,0)	(1,0)	(1,0)	(1,0)	(1,0)	(1,0)	
L1D -469>	(1,0)	(1,0)	(1,0)	(1,0)	(1,0)	(1,0)	(1,0)	(1,0)	(1,0)	(1,0)	(1,0)	(1,0)	(1,0)	(1,0)	(1,0)	(1,0)	
L1D -468>	(1,0)	(1,0)	(1,0)	(1,0)	(1,0)	(1,0)	(1,0)	(1,0)	(1,0)	(1,0)	(1,0)	(1,0)	(1,0)	(1,0)	(1,0)	(1,0)	
L1D -467>	(1,0)	(1,0)	(1,0)	(1,0)	(1,0)	(1,0)	(1,0)	(1,0)	(1,0)	(1,0)	(1,0)	(1,0)	(1,0)	(1,0)	(1,0)	(1,0)	
L1D -466>	(1,0)	(1,0)	(1,0)	(1,0)	(1,0)	(1,0)	(1,0)	(1,0)	(1,0)	(1,0)	(1,0)	(1,0)	(1,0)	(1,0)	(1,0)	(1,0)	
L1D -465>	(1,0)	(1,0)	(1,0)	(1,0)	(1,0)	(1,0)	(1,0)	(1,0)	(1,0)	(1,0)	(1,0)	(1,0)	(1,0)	(1,0)	(1,0)	(1,0)	
L1D -464>	(1,0)	(1,0)	(1,0)	(1,0)	(1,0)	(1,0)	(1,0)	(1,0)	(1,0)	(1,0)	(1,0)	(1,0)	(1,0)	(1,0)	(1,0)	(1,0)	
L1D -463>	(1,0)	(1,0)	(1,0)	(1,0)	(1,0)	(1,0)	(1,0)	(1,0)	(1,0)	(1,0)	(1,0)	(1,0)	(1,0)	(1,0)	(1,0)	(1,0)	
L1D -462>	(1,0)	(1,0)	(1,0)	(1,0)	(1,0)	(1,0)	(1,0)	(1,0)	(1,0)	(1,0)	(1,0)	(1,0)	(1,0)	(1,0)	(1,0)	(1,0)	
L1D -461>	(1,0)	(1,0)	(1,0)	(1,0)	(1,0)	(1,0)	(1,0)	(1,0)	(1,0)	(1,0)	(1,0)	(1,0)	(1,0)	(1,0)	(1,0)	(1,0)	
L1D -460>	(1,0)	(1,0)	(1,0)	(1,0)	(1,0)	(1,0)	(1,0)	(1,0)	(1,0)	(1,0)	(1,0)	(1,0)	(1,0)	(1,0)	(1,0)	(1,0)	
L1D -459>	(1,0)	(1,0)	(1,0)	(1,0)	(1,0)	(1,0)	(1,0)	(1,0)	(1,0)	(1,0)	(1,0)	(1,0)	(1,0)	(1,0)	(1,0)	(1,0)	
L1D -458>	(1,0)	(1,0)	(1,0)	(1,0)	(1,0)	(1,0)	(1,0)	(1,0)	(1,0)	(1,0)	(1,0)	(1,0)	(1,0)	(1,0)	(1,0)	(1,0)	
L1D -457>	(1,0)	(1,0)	(1,0)	(1,0)	(1,0)	(1,0)	(1,0)	(1,0)	(1,0)	(1,0)	(1,0)	(1,0)	(1,0)	(1,0)	(1,0)	(1,0)	
L1D -456>	(1,0)	(1,0)	(1,0)	(1,0)	(1,0)	(1,0)	(1,0)	(1,0)	(1,0)	(1,0)	(1,0)	(1,0)	(1,0)	(1,0)	(1,0)	(1,0)	
L1D -455>	(1,0)	(1,0)	(1,0)	(1,0)	(1,0)	(1,0)	(1,0)	(1,0)	(1,0)	(1,0)	(1,0)	(1,0)	(1,0)	(1,0)	(1,0)	(1,0)	
L1D -454>	(1,0)	(1,0)	(1,0)	(1,0)	(1,0)	(1,0)	(1,0)	(1,0)	(1,0)	(1,0)	(1,0)	(1,0)	(1,0)	(1,0)	(1,0)	(1,0)	
L1D -453>	(1,0)	(1,0)	(1,0)	(1,0)	(1,0)	(1,0)	(1,0)	(1,0)	(1,0)	(1,0)	(1,0)	(1,0)	(1,0)	(1,0)	(1,0)	(1,0)	
L1D -452>	(1,0)	(1,0)	(1,0)	(1,0)	(1,0)	(1,0)	(1,0)	(1,0)	(1,0)	(1,0)	(1,0)	(1,0)	(1,0)	(1,0)	(1,0)	(1,0)	
L1D -451>	(63,1)	(1,0)	(1,0)	(1,0)	(1,0)	(1,0)	(1,0)	(1,0)	(1,0)	(1,0)	(1,0)	(1,0)	(1,0)	(1,0)	(1,0)	(1,0)	
L1D -450>	(1,1)	(1,0)	(1,0)	(1,0)	(1,0)	(1,0)	(1,0)	(1,0)	(1,0)	(1,0)	(1,0)	(1,0)	(1,0)	(1,0)	(1,0)	(1,0)	
L1D -449>	(1,0)	(1,0)	(1,0)	(1,0)	(1,0)	(1,0)	(1,0)	(1,0)	(1,0)	(1,0)	(1,0)	(1,0)	(1,0)	(1,0)	(1,0)	(1,0)	
L1D -448>	(1,0)	(1,0)	(1,0)	(1,0)	(1,0)	(1,0)	(1,0)	(1,0)	(1,0)	(1,0)	(1,0)	(1,0)	(1,0)	(1,0)	(1,0)	(1,0)	
L1D -447>	(1,0)	(1,0)	(1,0)	(1,0)	(1,0)	(1,0)	(1,0)	(1,0)	(1,0)	(1,0)	(1,0)	(1,0)	(1,0)	(1,0)	(1,0)	(1,0)	
L1D -446>	(1,0)	(1,0)	(1,0)	(1,0)	(1,0)	(1,0)	(1,0)	(1,0)	(1,0)	(1,0)	(1,0)	(1,0)	(1,0)	(1,0)	(1,0)	(1,0)	
L1D -445>	(1,0)	(1,0)	(1,0)	(1,0)	(1,0)	(1,0)	(1,0)	(1,0)	(1,0)	(1,0)	(1,0)	(1,0)	(1,0)	(1,0)	(1,0)	(1,0)	
L1D -444>	(1,0)	(1,0)	(1,0)	(1,0)	(1,0)	(1,0)	(1,0)	(1,0)	(1,0)	(1,0)	(1,0)	(1,0)	(1,0)	(1,0)	(1,0)	(1,0)	
L1D -443>	(1,0)	(1,0)	(1,0)	(1,0)	(1,0)	(1,0)	(1,0)	(1,0)	(1,0)	(1,0)	(1,0)	(1,0)	(1,0)	(1,0)	(1,0)	(1,0)	
L1D -442>	(1,0)	(1,0)	(1,0)	(1,0)	(1,0)	(1,0)	(1,0)	(1,0)	(1,0)	(1,0)	(1,0)	(1,0)	(1,0)	(1,0)	(1,0)	(1,0)	
L1D -441>	(1,0)	(1,0)	(1,0)	(1,0)	(1,0)	(1,0)	(1,0)	(1,0)	(1,0)	(1,0)	(1,0)	(1,0)	(1,0)	(1,0)	(1,0)	(1,0)	
L1D -440>	(230,22)	(160,20)	(206,40)	(-1,1)	(119,1)	(1,0)	(1,0)	(1,0)	(1,0)	(1,0)	(1,0)	(1,0)	(1,0)	(1,0)	(1,0)	(1,0)	
L1D -439>	(1,0)	(1,0)	(1,0)	(1,0)	(1,0)	(1,0)	(1,0)	(1,0)	(1,0)	(1,0)	(1,0)	(1,0)	(1,0)	(1,0)	(1,0)	(1,0)	
L1D -438>	(1,0)	(1,0)	(1,0)	(1,0)	(1,0)	(1,0)	(1,0)	(1,0)	(1,0)	(1,0)	(1,0)	(1,0)	(1,0)	(1,0)	(1,0)	(1,0)	
L1D -437>	(1,0)	(1,0)	(1,0)	(1,0)	(1,0)	(1,0)	(1,0)	(1,0)	(1,0)	(1,0)	(1,0)	(1,0)	(1,0)	(1,0)	(1,0)	(1,0)	
L1D -436>	(1,0)	(1,0)	(1,0)	(1,0)	(1,0)	(1,0)	(1,0)	(1,0)	(1,0)	(1,0)	(1,0)	(1,0)	(1,0)	(1,0)	(1,0)	(1,0)	
L1D -435>	(1,0)	(1,0)	(1,0)	(1,0)	(1,0)	(1,0)	(1,0)	(1,0)	(1,0)	(1,0)	(1,0)	(1,0)	(1,0)	(1,0)	(1,0)	(1,0)	
L1D -434>	(26,19)	(1,0)	(1,0)	(1,0)	(1,0)	(1,0)	(1,0)	(1,0)	(1,0)	(1,0)	(1,0)	(1,0)	(1,0)	(1,0)	(1,0)	(1,0)	
L1D -433>	(1,0)	(1,0)	(1,0)	(1,0)	(1,0)	(1,0)	(1,0)	(1,0)	(1,0)	(1,0)	(1,0)	(1,0)	(1,0)	(1,0)	(1,0)	(1,0)	
L1D -432>	(430,64)	(34,21)	(2,10)	(18,15)	(1,0)	(1,0)	(1,0)	(1,0)	(1,0)	(1,0)	(1,0)	(1,0)	(1,0)	(1,0)	(1,0)	(1,0)	
L1D -431>	(1,0)	(1,0)	(1,0)	(1,0)	(1,0)	(1,0)	(1,0)	(1,0)	(1,0)	(1,0)	(1,0)	(1,0)	(1,0)	(1,0)	(1,0)	(1,0)	
L1D -430>	(200,20)	(32,7)	(-2,94)	(1,0)	(1,0)	(1,0)	(1,0)	(1,0)	(1,0)	(1,0)	(1,0)	(1,0)	(1,0)	(1,0)	(1,0)	(1,0)	
L1D -429>	(1,0)	(1,0)	(1,0)	(1,0)	(1,0)	(1,0)	(1,0)	(1,0)	(1,0)	(1,0)	(1,0)	(1,0)	(1,0)	(1,0)	(1,0)	(1,0)	
L1D -428>	(-1,1)	(1,0)	(1,0)	(1,0)	(1,0)	(1,0)	(1,0)	(1,0)	(1,0)	(1,0)	(1,0)	(1,0)	(1,0)	(1,0)	(1,0)	(1,0)	
L1D -427>	(-1,1)	(1,0)	(1,0)	(1,0)	(1,0)	(1,0)	(1,0)	(1,0)	(1,0)	(1,0)	(1,0)	(1,0)	(1,0)	(1,0)	(1,0)	(1,0)	
L1D -426>	(1,0)	(1,0)	(1,0)	(1,0)	(1,0)	(1,0)	(1,0)	(1,0)	(1,0)	(1,0)	(1,0)	(1,0)	(1,0)	(1,0)	(1,0)	(1,0)	
L1D -425>	(1,0)	(1,0)	(1,0)	(1,0)	(1,0)	(1,0)	(1,0)	(1,0)	(1,0)	(1,0)	(1,0)	(1,0)	(1,0)	(1,0)	(1,0)	(1,0)	
L1D -424>	(1,0)	(1,0)	(1,0)	(1,0)	(1,0)	(1,0)	(1,0)	(1,0)	(1,0)	(1,0)	(1,0)	(1,0)	(1,0)	(1,0)	(1,0)	(1,0)	
L1D -423>	(1,0)	(1,0)	(1,0)	(1,0)	(1,0)	(1,0)	(1,0)	(1,0)	(1,0)	(1,0)	(1,0)	(1,0)	(1,0)	(1,0)	(1,0)	(1,0)	
L1D -422>	(1,0)	(1,0)	(1,0)	(1,0)	(1,0)	(1,0)	(1,0)	(1,0)	(1,0)	(1,0)	(1,0)	(1,0)	(1,0)	(1,0)	(1,0)	(1,0)	
L1D -421>	(1,0)	(1,0)	(1,0)	(1,0)	(1,0)	(1,0)	(1,0)	(1,0)	(1,0)	(1,0)	(1,0)	(1,0)	(1,0)	(1,0)	(1,0)	(1,0)	
L1D -420>	(1,0)	(1,0)	(1,0)	(1,0)	(1,0)	(1,0)	(1,0)	(1,0)	(1,0)	(1,0)	(1,0)	(1,0)	(1,0)	(1,0)	(1,0)	(1,0)	
L1D -419>	(1,0)	(1,0)	(1,0)	(1,0)	(1,0)	(1,0)	(1,0)	(1,0)	(1,0)	(1,0)	(1,0)	(1,0)	(1,0)	(1,0)	(1,0)	(1,0)	
L1D -418>	(1,0)	(1,0)	(1,0)	(1,0)	(1,0)	(1,0)	(1,0)	(1,0)	(1,0)	(1,0)	(1,0)	(1,0)	(1,0)	(1,0)	(1,0)	(1,0)	
L1D -417>	(1,0)	(1,0)	(1,0)	(1,0)	(1,0)	(1,0)	(1,0)	(1,0)	(1,0)	(1,0)	(1,0)	(1,0)	(1,0)	(1,0)	(1,0)	(1,0)	
L1D -416>	(1,0)	(1,0)	(1,0)	(1,0)	(1,0)	(1,0)	(1,0)	(1,0)	(1,0)	(1,0)	(1,0)	(1,0)	(1,0)	(1,0)	(1,0)	(1,0)	
L1D -415>	(1,0)	(1,0)	(1,0)	(1,0)	(1,0)	(1,0)	(1,0)	(1,0)	(1,0)	(1,0)	(1,0)	(1,0)	(1,0)	(1,0)	(1,0)	(1,0)	
L1D -414>	(98,67)	(286,1)	(-18,0)	(16,1)	(184,0)	(12,1)	(1,0)	(1,0)	(1,0)	(1,0)	(1,0)	(1,0)	(1,0)	(1,0)	(1,0)	(1,0)	
L1D -413>	(1,0)	(1,0)	(1,0)	(1,0)	(1,0)	(1,0)	(1,0)	(1,0)	(1,0)	(1,0)	(1,0)	(1,0)	(1,0)	(1,0)	(1,0)	(1,0)	
L1D -412>	(1,0)	(1,0)	(1,0)	(1,0)	(1,0)	(1,0)	(1,0)	(1,0)	(1,0)	(1,0)	(1,0)	(1,0)	(1,0)	(1,0)	(1,0)	(1,0)	
L1D -411>	(1,0)	(1,0)	(1,0)	(1,0)	(1,0)	(1,0)	(1,0)	(1,0)	(1,0)	(1,0)	(1,0)	(1,0)	(1,0)	(1,0)	(1,0)	(1,0)	
L1D -410>	(1,0)	(1,0)	(1,0)	(1,0)	(1,0)	(1,0)	(1,0)	(1,0)	(1,0)	(1,0)	(1,0)	(1,0)	(1,0)	(1,0)	(1,0)	(1,0)	
L1D -409>	(1,0)	(1,0)	(1,0)	(1,0)	(1,0)	(1,0)	(1,0)	(1,0)	(1,0)	(1,0)	(1,0)	(1,0)	(1,0)	(1,0)	(1,0)	(1,0)	
L1D -408>	(1,0)	(1,0)	(1,0)	(1,0)	(1,0)	(1,0)	(1,0)	(1,0)	(1,0)	(1,0)	(1,0)	(1,0)	(1,0)	(1,0)	(1,0)	(1,0)	
L1D -407>	(1,0)	(1,0)	(1,0)	(1,0)	(1,0)	(1,0)	(1,0)	(1,0)	(1,0)	(1,0)	(1,0)	(1,0)	(1,0)	(1,0)	(1,0)	(1,0)	
L1D -406>	(1,0)	(1,0)	(1,0)	(1,0)	(1,0)	(1,0)	(1,0)	(1,0)	(1,0)	(1,0)	(1,0)	(1,0)	(1,0)	(1,0)	(1,0)	(1,0)	
L1D -405>	(1,0)	(1,0)	(1,0)	(1,0)	(1,0)	(1,0)	(1,0)	(1,0)	(1,0)	(1,0)	(1,0)	(1,0)	(1,0)	(1,0)	(1,0)	(1,0)	
L1D -404>	(1,0)	(1,0)	(1,0)	(1,0)	(1,0)	(1,0)	(1,0)	(1,0)	(1,0)	(1,0)	(1,0)	(1,0)	(1,0)	(1,0)	(1,0)	(1,0)	
L1D -403>	(1,0)	(1,0)	(1,0)	(1,0)	(1,0)	(1,0)	(1,0)	(1,0)	(1,0)	(1,0)	(1,0)	(1,0)	(1,0)	(1,0)	(1,0)	(1,0)	
L1D -402>	(274,75)	(72,0)	(1,0)	(1,0)	(1,0)	(1,0)	(1,0)	(1,0)	(1,0)	(1,0)	(1,0)	(1,0)	(1,0)	(1,0)	(1,0)	(1,0)	
L1D -401>	(1,0)	(1,0)	(1,0)	(1,0)	(1,0)	(1,0)	(1,0)	(1,0)	(1,0)	(1,0)	(1,0)	(1,0)	(1,0)	(1,0)	(1,0)	(1,0)	
L1D -400>	(1,0)	(1,0)	(1,0)	(1,0)	(1,0)	(1,0)	(1,0)	(1,0)	(1,0)	(1,0)	(1,0)	(1,0)	(1,0)	(1,0)	(1,0)	(1,0)	
L1D -399>	(1,0)	(1,0)	(1,0)	(1,0)	(1,0)	(1,0)	(1,0)	(1,0)	(1,0)	(1,0)	(1,0)	(1,0)	(1,0)	(1,0)	(1,0)	(1,0)	
L1D -398>	(-16,77)	(74,3)	(-36,17)	(308,0)	(-10,0)	(82,7)	(1,0)	(1,0)	(1,0)	(1,0)	(1,0)	(1,0)	(1,0)	(1,0)	(1,0)	(1,0)	
L1D -397>	(1,0)	(1,0)	(1,0)	(1,0)	(1,0)	(1,0)	(1,0)	(1,0)	(1,0)	(1,0)	(1,0)	(1,0)	(1,0)	(1,0)	(1,0)	(1,0)	
L1D -396>	(1,0)	(1,0)	(1,0)	(1,0)	(1,0)	(1,0)	(1,0)	(1,0)	(1,0)	(1,0)	(1,0)	(1,0)	(1,0)	(1,0)	(1,0)	(1,0)	
L1D -395>	(1,0)	(1,0)	(1,0)	(1,0)	(1,0)	(1,0)	(1,0)	(1,0)	(1,0)	(1,0)	(1,0)	(1,0)	(1,0)	(1,0)	(1,0)	(1,0)	
L1D -394>	(202,41)	(294,21)	(1,0)	(1,0)	(1,0)	(1,0)	(1,0)	(1,0)	(1,0)	(1,0)	(1,0)	(1,0)	(1,0)	(1,0)	(1,0)	(1,0)	
L1D -393>	(1,0)	(1,0)	(1,0)	(1,0)	(1,0)	(1,0)	(1,0)	(1,0)	(1,0)	(1,0)	(1,0)	(1,0)	(1,0)	(1,0)	(1,0)	(1,0)	
L1D -392>	(262,20)	(1,0)	(1,0)	(1,0)	(1,0)	(1,0)	(1,0)	(1,0)	(1,0)	(1,0)	(1,0)	(1,0)	(1,0)	(1,0)	(1,0)	(1,0)	
L1D -391>	(1,0)	(1,0)	(1,0)	(1,0)	(1,0)	(1,0)	(1,0)	(1,0)	(1,0)	(1,0)	(1,0)	(1,0)	(1,0)	(1,0)	(1,0)	(1,0)	
L1D -390>	(390,1)	(1,0)	(1,0)	(1,0)	(1,0)	(1,0)	(1,0)	(1,0)	(1,0)	(1,0)	(1,0)	(1,0)	(1,0)	(1,0)	(1,0)	(1,0)	
L1D -389>	(-1,1)	(1,2)	(1,0)	(1,0)	(1,0)	(1,0)	(1,0)	(1,0)	(1,0)	(1,0)	(1,0)	(1,0)	(1,0)	(1,0)	(1,0)	(1,0)	
L1D -388>	(12,67)	(1,5)	(-1,3)	(388,5)	(294,1)	(389,6)	(1,0)	(1,0)	(1,0)	(1,0)	(1,0)	(1,0)	(1,0)	(1,0)	(1,0)	(1,0)	
L1D -387>	(-1,126)	(388,68)	(387,2)	(1,0)	(1,0)	(1,0)	(1,0)	(1,0)	(1,0)	(1,0)	(1,0)	(1,0)	(1,0)	(1,0)	(1,0)	(1,0)	
L1D -386>	(294,22)	(1,0)	(1,0)	(1,0)	(1,0)	(1,0)	(1,0)	(1,0)	(1,0)	(1,0)	(1,0)	(1,0)	(1,0)	(1,0)	(1,0)	(1,0)	
L1D -385>	(-1,11)	(1,3)	(386,2)	(1,0)	(1,0)	(1,0)	(1,0)	(1,0)	(1,0)	(1,0)	(1,0)	(1,0)	(1,0)	(1,0)	(1,0)	(1,0)	
L1D -384>	(-1,22)	(1,22)	(30,30)	(385,11)	(384,10)	(1,0)	(1,0)	(1,0)	(1,0)	(1,0)	(1,0)	(1,0)	(1,0)	(1,0)	(1,0)	(1,0)	
L1D -383>	(-1,125)	(384,71)	(383,3)	(1,0)	(1,0)	(1,0)	(1,0)	(1,0)	(1,0)	(1,0)	(1,0)	(1,0)	(1,0)	(1,0)	(1,0)	(1,0)	
L1D -382>	(348,79)	(-1,2)	(1,1)	(359,1)	(1,0)	(1,0)	(1,0)	(1,0)	(1,0)	(1,0)	(1,0)	(1,0)	(1,0)	(1,0)	(1,0)	(1,0)	
L1D -381>	(-1,4)	(1,0)	(1,0)	(1,0)	(1,0)	(1,0)	(1,0)	(1,0)	(1,0)	(1,0)	(1,0)	(1,0)	(1,0)	(1,0)	(1,0)	(1,0)	
L1D -380>	(348,66)	(76,0)	(382,1)	(78,0)	(1,0)	(1,0)	(1,0)	(1,0)	(1,0)	(1,0)	(1,0)	(1,0)	(1,0)	(1,0)	(1,0)	(1,0)	
L1D -379>	(-1,1)	(1,0)	(1,0)	(1,0)	(1,0)	(1,0)	(1,0)	(1,0)	(1,0)	(1,0)	(1,0)	(1,0)	(1,0)	(1,0)	(1,0)	(1,0)	
L1D -378>	(1,0)	(1,0)	(1,0)	(1,0)	(1,0)	(1,0)	(1,0)	(1,0)	(1,0)	(1,0)	(1,0)	(1,0)	(1,0)	(1,0)	(1,0)	(1,0)	
L1D -377>	(1,0)	(1,0)	(1,0)	(1,0)	(1,0)	(1,0)	(1,0)	(1,0)	(1,0)	(1,0)	(1,0)	(1,0)	(1,0)	(1,0)	(1,0)	(1,0)	
L1D -376>	(52,49)	(48,7)	(1,0)	(1,0)	(1,0)	(1,0)	(1,0)	(1,0)	(1,0)	(1,0)	(1,0)	(1,0)	(1,0)	(1,0)	(1,0)	(1,0)	
L1D -375>	(1,0)	(1,0)	(1,0)	(1,0)	(1,0)	(1,0)	(1,0)	(1,0)	(1,0)	(1,0)	(1,0)	(1,0)	(1,0)	(1,0)	(1,0)	(1,0)	
L1D -374>	(72,4)	(44,1)	(1,0)	(1,0)	(1,0)	(1,0)	(1,0)	(1,0)	(1,0)	(1,0)	(1,0)	(1,0)	(1,0)	(1,0)	(1,0)	(1,0)	
L1D -373>	(1,0)	(1,0)	(1,0)	(1,0)	(1,0)	(1,0)	(1,0)	(1,0)	(1,0)	(1,0)	(1,0)	(1,0)	(1,0)	(1,0)	(1,0)	(1,0)	
L1D -372>	(60,32)	(12,5)	(372,1)	(16,1)	(1,0)	(1,0)	(1,0)	(1,0)	(1,0)	(1,0)	(1,0)	(1,0)	(1,0)	(1,0)	(1,0)	(1,0)	
L1D -371>	(-1,1)	(1,0)	(1,0)	(1,0)	(1,0)	(1,0)	(1,0)	(1,0)	(1,0)	(1,0)	(1,0)	(1,0)	(1,0)	(1,0)	(1,0)	(1,0)	
L1D -370>	(90,43)	(62,3)	(1,0)	(1,0)	(1,0)	(1,0)	(1,0)	(1,0)	(1,0)	(1,0)	(1,0)	(1,0)	(1,0)	(1,0)	(1,0)	(1,0)	
L1D -369>	(1,0)	(1,0)	(1,0)	(1,0)	(1,0)	(1,0)	(1,0)	(1,0)	(1,0)	(1,0)	(1,0)	(1,0)	(1,0)	(1,0)	(1,0)	(1,0)	
L1D -368>	(54,67)	(-1,1)	(52,3)	(48,17)	(90,3)	(50,2)	(1,0)	(1,0)	(1,0)	(1,0)	(1,0)	(1,0)	(1,0)	(1,0)	(1,0)	(1,0)	
L1D -367>	(-1,1)	(1,0)	(1,0)	(1,0)	(1,0)	(1,0)	(1,0)	(1,0)	(1,0)	(1,0)	(1,0)	(1,0)	(1,0)	(1,0)	(1,0)	(1,0)	
L1D -366>	(367,1)	(366,1)	(1,0)	(1,0)	(1,0)	(1,0)	(1,0)	(1,0)	(1,0)	(1,0)	(1,0)	(1,0)	(1,0)	(1,0)	(1,0)	(1,0)	
L1D -365>	(-1,9)	(1,3)	(1,0)	(1,0)	(1,0)	(1,0)	(1,0)	(1,0)	(1,0)	(1,0)	(1,0)	(1,0)	(1,0)	(1,0)	(1,0)	(1,0)	
L1D -364>	(1,1)	(-1,1)	(90,92)	(365,2)	(314,56)	(241,10)	(62,1)	(370,4)	(66,0)	(88,0)	(364,3)	(60,0)	(1,0)	(1,0)	(1,0)	(1,0)	
L1D -363>	(-1,123)	(364,73)	(363,4)	(1,0)	(1,0)	(1,0)	(1,0)	(1,0)	(1,0)	(1,0)	(1,0)	(1,0)	(1,0)	(1,0)	(1,0)	(1,0)	
L1D -362>	(348,12)	(78,10)	(1,0)	(1,0)	(1,0)	(1,0)	(1,0)	(1,0)	(1,0)	(1,0)	(1,0)	(1,0)	(1,0)	(1,0)	(1,0)	(1,0)	
L1D -361>	(1,0)	(1,0)	(1,0)	(1,0)	(1,0)	(1,0)	(1,0)	(1,0)	(1,0)	(1,0)	(1,0)	(1,0)	(1,0)	(1,0)	(1,0)	(1,0)	
L1D -360>	(10,84)	(1,0)	(1,0)	(1,0)	(1,0)	(1,0)	(1,0)	(1,0)	(1,0)	(1,0)	(1,0)	(1,0)	(1,0)	(1,0)	(1,0)	(1,0)	
L1D -359>	(1,1)	(1,0)	(1,0)	(1,0)	(1,0)	(1,0)	(1,0)	(1,0)	(1,0)	(1,0)	(1,0)	(1,0)	(1,0)	(1,0)	(1,0)	(1,0)	
L1D -358>	(-14,75)	(-1,20)	(1,23)	(359,11)	(358,11)	(1,0)	(1,0)	(1,0)	(1,0)	(1,0)	(1,0)	(1,0)	(1,0)	(1,0)	(1,0)	(1,0)	
L1D -357>	(-1,124)	(358,76)	(357,3)	(9,1)	(1,0)	(1,0)	(1,0)	(1,0)	(1,0)	(1,0)	(1,0)	(1,0)	(1,0)	(1,0)	(1,0)	(1,0)	
L1D -356>	(-2,22)	(1,1)	(-1,1)	(-16,12)	(1,0)	(1,0)	(1,0)	(1,0)	(1,0)	(1,0)	(1,0)	(1,0)	(1,0)	(1,0)	(1,0)	(1,0)	
L1D -355>	(-1,4)	(355,1)	(356,1)	(1,0)	(1,0)	(1,0)	(1,0)	(1,0)	(1,0)	(1,0)	(1,0)	(1,0)	(1,0)	(1,0)	(1,0)	(1,0)	
L1D -354>	(-4,32)	(-2,32)	(-1,1)	(-18,83)	(-30,1)	(1,0)	(1,0)	(1,0)	(1,0)	(1,0)	(1,0)	(1,0)	(1,0)	(1,0)	(1,0)	(1,0)	
L1D -353>	(-1,5)	(354,2)	(1,0)	(1,0)	(1,0)	(1,0)	(1,0)	(1,0)	(1,0)	(1,0)	(1,0)	(1,0)	(1,0)	(1,0)	(1,0)	(1,0)	
L1D -352>	(-16,83)	(1,0)	(38,5)	(32,7)	(34,4)	(36,3)	(1,0)	(1,0)	(1,0)	(1,0)	(1,0)	(1,0)	(1,0)	(1,0)	(1,0)	(1,0)	
L1D -351>	(-1,2)	(352,1)	(1,0)	(1,0)	(1,0)	(1,0)	(1,0)	(1,0)	(1,0)	(1,0)	(1,0)	(1,0)	(1,0)	(1,0)	(1,0)	(1,0)	
L1D -350>	(-2,1)	(90,111)	(370,4)	(88,2)	(64,0)	(1,0)	(1,0)	(1,0)	(1,0)	(1,0)	(1,0)	(1,0)	(1,0)	(1,0)	(1,0)	(1,0)	
L1D -349>	(1,0)	(1,0)	(1,0)	(1,0)	(1,0)	(1,0)	(1,0)	(1,0)	(1,0)	(1,0)	(1,0)	(1,0)	(1,0)	(1,0)	(1,0)	(1,0)	
L1D -348>	(4,7)	(78,29)	(88,97)	(347,3)	(-1,0)	(175,0)	(362,0)	(1,0)	(1,0)	(1,0)	(1,0)	(1,0)	(1,0)	(1,0)	(1,0)	(1,0)	
L1D -347>	(1,11)	(3,24)	(174,32)	(2,102)	(-1,21)	(4,13)	(172,70)	(175,1)	(346,27)	(348,27)	(344,71)	(176,2)	(173,1)	(171,1)	(345,1)	(343,1)	
L1D -346>	(172,0)	(342,0)	(3,9)	(343,2)	(173,0)	(1,1)	(345,69)	(344,0)	(174,15)	(88,0)	(1,0)	(1,0)	(1,0)	(1,0)	(1,0)	(1,0)	
L1D -345>	(344,5)	(342,25)	(172,18)	(348,125)	(171,6)	(346,43)	(345,108)	(169,6)	(347,4)	(173,6)	(2,25)	(3,24)	(-1,16)	(175,16)	(4,3)	(174,6)	
L1D -344>	(347,4)	(171,43)	(168,2)	(1,6)	(3,5)	(346,4)	(172,37)	(343,72)	(348,1)	(173,63)	(174,52)	(-1,22)	(170,23)	(4,5)	(169,3)	(2,3)	
L1D -343>	(3,0)	(342,41)	(169,0)	(2,1)	(-1,89)	(171,14)	(-3,8)	(346,2)	(345,8)	(172,11)	(-2,10)	(1,32)	(-4,0)	(168,5)	(344,0)	(173,0)	
L1D -342>	(171,17)	(341,0)	(-1,58)	(170,66)	(345,21)	(169,0)	(346,13)	(343,9)	(168,0)	(-2,0)	(344,0)	(172,2)	(173,0)	(340,0)	(-4,91)	(-3,1)	
L1D -341>	(-3,0)	(169,1)	(172,74)	(171,4)	(349,0)	(170,0)	(-1,79)	(-2,16)	(1,0)	(173,0)	(343,2)	(-4,0)	(168,0)	(345,0)	(0,0)	(1,0)	
L1D -340>	(168,16)	(28,9)	(12,6)	(343,12)	(-1,24)	(171,78)	(170,0)	(169,14)	(-2,2)	(344,8)	(172,21)	(-4,5)	(4,9)	(-8,3)	(1,0)	(1,0)	
L1D -339>	(170,8)	(-1,3)	(1,0)	(1,0)	(1,0)	(1,0)	(1,0)	(1,0)	(1,0)	(1,0)	(1,0)	(1,0)	(1,0)	(1,0)	(1,0)	(1,0)	
L1D -338>	(12,124)	(28,62)	(-4,38)	(344,3)	(4,13)	(-1,5)	(-2,1)	(1,0)	(1,0)	(1,0)	(1,0)	(1,0)	(1,0)	(1,0)	(1,0)	(1,0)	
L1D -337>	(-1,96)	(1,7)	(172,22)	(-2,3)	(1,0)	(1,0)	(1,0)	(1,0)	(1,0)	(1,0)	(1,0)	(1,0)	(1,0)	(1,0)	(1,0)	(1,0)	
L1D -336>	(-2,3)	(-4,1)	(-1,0)	(66,0)	(-12,87)	(1,0)	(1,0)	(1,0)	(1,0)	(1,0)	(1,0)	(1,0)	(1,0)	(1,0)	(1,0)	(1,0)	
L1D -335>	(-2,7)	(172,32)	(-1,35)	(1,1)	(1,0)	(1,0)	(1,0)	(1,0)	(1,0)	(1,0)	(1,0)	(1,0)	(1,0)	(1,0)	(1,0)	(1,0)	
L1D -334>	(32,9)	(-12,14)	(335,1)	(1,0)	(1,0)	(1,0)	(1,0)	(1,0)	(1,0)	(1,0)	(1,0)	(1,0)	(1,0)	(1,0)	(1,0)	(1,0)	
L1D -333>	(-1,2)	(1,0)	(1,0)	(1,0)	(1,0)	(1,0)	(1,0)	(1,0)	(1,0)	(1,0)	(1,0)	(1,0)	(1,0)	(1,0)	(1,0)	(1,0)	
L1D -332>	(-1,1)	(1,0)	(1,0)	(1,0)	(1,0)	(1,0)	(1,0)	(1,0)	(1,0)	(1,0)	(1,0)	(1,0)	(1,0)	(1,0)	(1,0)	(1,0)	
L1D -331>	(332,1)	(331,1)	(1,0)	(1,0)	(1,0)	(1,0)	(1,0)	(1,0)	(1,0)	(1,0)	(1,0)	(1,0)	(1,0)	(1,0)	(1,0)	(1,0)	
L1D -330>	(-1,1)	(1,0)	(1,0)	(1,0)	(1,0)	(1,0)	(1,0)	(1,0)	(1,0)	(1,0)	(1,0)	(1,0)	(1,0)	(1,0)	(1,0)	(1,0)	
L1D -329>	(-1,7)	(1,0)	(1,0)	(1,0)	(1,0)	(1,0)	(1,0)	(1,0)	(1,0)	(1,0)	(1,0)	(1,0)	(1,0)	(1,0)	(1,0)	(1,0)	
L1D -328>	(30,94)	(384,4)	(28,7)	(-8,14)	(1,0)	(1,0)	(1,0)	(1,0)	(1,0)	(1,0)	(1,0)	(1,0)	(1,0)	(1,0)	(1,0)	(1,0)	
L1D -327>	(-1,2)	(1,0)	(1,0)	(1,0)	(1,0)	(1,0)	(1,0)	(1,0)	(1,0)	(1,0)	(1,0)	(1,0)	(1,0)	(1,0)	(1,0)	(1,0)	
L1D -326>	(-2,30)	(-8,11)	(-1,1)	(1,0)	(1,0)	(1,0)	(1,0)	(1,0)	(1,0)	(1,0)	(1,0)	(1,0)	(1,0)	(1,0)	(1,0)	(1,0)	
L1D -325>	(-1,3)	(1,3)	(1,0)	(1,0)	(1,0)	(1,0)	(1,0)	(1,0)	(1,0)	(1,0)	(1,0)	(1,0)	(1,0)	(1,0)	(1,0)	(1,0)	
L1D -324>	(-74,39)	(-1,25)	(1,19)	(-2,12)	(-4,19)	(325,16)	(-90,22)	(324,4)	(1,0)	(1,0)	(1,0)	(1,0)	(1,0)	(1,0)	(1,0)	(1,0)	
L1D -323>	(-1,72)	(324,38)	(323,3)	(1,0)	(1,0)	(1,0)	(1,0)	(1,0)	(1,0)	(1,0)	(1,0)	(1,0)	(1,0)	(1,0)	(1,0)	(1,0)	
L1D -322>	(30,79)	(-66,80)	(90,57)	(1,0)	(1,0)	(1,0)	(1,0)	(1,0)	(1,0)	(1,0)	(1,0)	(1,0)	(1,0)	(1,0)	(1,0)	(1,0)	
L1D -321>	(1,0)	(1,0)	(1,0)	(1,0)	(1,0)	(1,0)	(1,0)	(1,0)	(1,0)	(1,0)	(1,0)	(1,0)	(1,0)	(1,0)	(1,0)	(1,0)	
L1D -320>	(36,72)	(1,0)	(1,0)	(1,0)	(1,0)	(1,0)	(1,0)	(1,0)	(1,0)	(1,0)	(1,0)	(1,0)	(1,0)	(1,0)	(1,0)	(1,0)	
L1D -319>	(1,0)	(1,0)	(1,0)	(1,0)	(1,0)	(1,0)	(1,0)	(1,0)	(1,0)	(1,0)	(1,0)	(1,0)	(1,0)	(1,0)	(1,0)	(1,0)	
L1D -318>	(-2,31)	(1,1)	(1,0)	(1,0)	(1,0)	(1,0)	(1,0)	(1,0)	(1,0)	(1,0)	(1,0)	(1,0)	(1,0)	(1,0)	(1,0)	(1,0)	
L1D -317>	(-1,4)	(318,1)	(1,0)	(1,0)	(1,0)	(1,0)	(1,0)	(1,0)	(1,0)	(1,0)	(1,0)	(1,0)	(1,0)	(1,0)	(1,0)	(1,0)	
L1D -316>	(-2,21)	(-4,19)	(317,1)	(1,0)	(1,0)	(1,0)	(1,0)	(1,0)	(1,0)	(1,0)	(1,0)	(1,0)	(1,0)	(1,0)	(1,0)	(1,0)	
L1D -315>	(-1,7)	(1,0)	(1,0)	(1,0)	(1,0)	(1,0)	(1,0)	(1,0)	(1,0)	(1,0)	(1,0)	(1,0)	(1,0)	(1,0)	(1,0)	(1,0)	
L1D -314>	(1,25)	(-1,20)	(-4,21)	(-2,1)	(-6,14)	(315,11)	(314,11)	(1,0)	(1,0)	(1,0)	(1,0)	(1,0)	(1,0)	(1,0)	(1,0)	(1,0)	
L1D -313>	(-1,65)	(314,34)	(313,2)	(1,0)	(1,0)	(1,0)	(1,0)	(1,0)	(1,0)	(1,0)	(1,0)	(1,0)	(1,0)	(1,0)	(1,0)	(1,0)	
L1D -312>	(-48,9)	(-16,122)	(1,0)	(1,0)	(1,0)	(1,0)	(1,0)	(1,0)	(1,0)	(1,0)	(1,0)	(1,0)	(1,0)	(1,0)	(1,0)	(1,0)	
L1D -311>	(-1,2)	(1,0)	(1,0)	(1,0)	(1,0)	(1,0)	(1,0)	(1,0)	(1,0)	(1,0)	(1,0)	(1,0)	(1,0)	(1,0)	(1,0)	(1,0)	
L1D -310>	(254,49)	(28,1)	(-1,1)	(-16,1)	(1,0)	(1,0)	(1,0)	(1,0)	(1,0)	(1,0)	(1,0)	(1,0)	(1,0)	(1,0)	(1,0)	(1,0)	
L1D -309>	(238,117)	(310,0)	(1,0)	(1,0)	(1,0)	(1,0)	(1,0)	(1,0)	(1,0)	(1,0)	(1,0)	(1,0)	(1,0)	(1,0)	(1,0)	(1,0)	
L1D -308>	(149,42)	(92,40)	(-62,52)	(1,0)	(1,0)	(1,0)	(1,0)	(1,0)	(1,0)	(1,0)	(1,0)	(1,0)	(1,0)	(1,0)	(1,0)	(1,0)	
L1D -307>	(-1,6)	(1,0)	(1,0)	(1,0)	(1,0)	(1,0)	(1,0)	(1,0)	(1,0)	(1,0)	(1,0)	(1,0)	(1,0)	(1,0)	(1,0)	(1,0)	
L1D -306>	(300,27)	(1,1)	(-74,5)	(1,0)	(1,0)	(1,0)	(1,0)	(1,0)	(1,0)	(1,0)	(1,0)	(1,0)	(1,0)	(1,0)	(1,0)	(1,0)	
L1D -305>	(-1,1)	(1,0)	(1,0)	(1,0)	(1,0)	(1,0)	(1,0)	(1,0)	(1,0)	(1,0)	(1,0)	(1,0)	(1,0)	(1,0)	(1,0)	(1,0)	
L1D -304>	(284,24)	(-1,1)	(30,1)	(1,0)	(1,0)	(1,0)	(1,0)	(1,0)	(1,0)	(1,0)	(1,0)	(1,0)	(1,0)	(1,0)	(1,0)	(1,0)	
L1D -303>	(-1,2)	(1,0)	(1,0)	(1,0)	(1,0)	(1,0)	(1,0)	(1,0)	(1,0)	(1,0)	(1,0)	(1,0)	(1,0)	(1,0)	(1,0)	(1,0)	
L1D -302>	(-62,112)	(-34,20)	(-66,0)	(1,0)	(1,0)	(1,0)	(1,0)	(1,0)	(1,0)	(1,0)	(1,0)	(1,0)	(1,0)	(1,0)	(1,0)	(1,0)	
L1D -301>	(-1,1)	(1,0)	(1,0)	(1,0)	(1,0)	(1,0)	(1,0)	(1,0)	(1,0)	(1,0)	(1,0)	(1,0)	(1,0)	(1,0)	(1,0)	(1,0)	
L1D -300>	(-74,78)	(-64,7)	(1,0)	(1,0)	(1,0)	(1,0)	(1,0)	(1,0)	(1,0)	(1,0)	(1,0)	(1,0)	(1,0)	(1,0)	(1,0)	(1,0)	
L1D -299>	(294,21)	(218,81)	(-1,2)	(1,1)	(1,0)	(1,0)	(1,0)	(1,0)	(1,0)	(1,0)	(1,0)	(1,0)	(1,0)	(1,0)	(1,0)	(1,0)	
L1D -298>	(-30,7)	(284,1)	(42,1)	(-18,2)	(-66,1)	(1,0)	(1,0)	(1,0)	(1,0)	(1,0)	(1,0)	(1,0)	(1,0)	(1,0)	(1,0)	(1,0)	
L1D -297>	(-1,1)	(1,0)	(1,0)	(1,0)	(1,0)	(1,0)	(1,0)	(1,0)	(1,0)	(1,0)	(1,0)	(1,0)	(1,0)	(1,0)	(1,0)	(1,0)	
L1D -296>	(200,122)	(68,42)	(-120,20)	(-1,1)	(1,0)	(1,0)	(1,0)	(1,0)	(1,0)	(1,0)	(1,0)	(1,0)	(1,0)	(1,0)	(1,0)	(1,0)	
L1D -295>	(226,59)	(248,33)	(246,14)	(294,77)	(-1,2)	(1,0)	(1,0)	(1,0)	(1,0)	(1,0)	(1,0)	(1,0)	(1,0)	(1,0)	(1,0)	(1,0)	
L1D -294>	(64,8)	(-136,8)	(84,116)	(214,7)	(148,7)	(226,43)	(1,1)	(1,0)	(1,0)	(1,0)	(1,0)	(1,0)	(1,0)	(1,0)	(1,0)	(1,0)	
L1D -293>	(-1,1)	(1,0)	(1,0)	(1,0)	(1,0)	(1,0)	(1,0)	(1,0)	(1,0)	(1,0)	(1,0)	(1,0)	(1,0)	(1,0)	(1,0)	(1,0)	
L1D -292>	(290,121)	(-1,1)	(-150,13)	(1,0)	(1,0)	(1,0)	(1,0)	(1,0)	(1,0)	(1,0)	(1,0)	(1,0)	(1,0)	(1,0)	(1,0)	(1,0)	
L1D -291>	(-1,3)	(1,0)	(1,0)	(1,0)	(1,0)	(1,0)	(1,0)	(1,0)	(1,0)	(1,0)	(1,0)	(1,0)	(1,0)	(1,0)	(1,0)	(1,0)	
L1D -290>	(-1,2)	(290,1)	(1,0)	(1,0)	(1,0)	(1,0)	(1,0)	(1,0)	(1,0)	(1,0)	(1,0)	(1,0)	(1,0)	(1,0)	(1,0)	(1,0)	
L1D -289>	(-1,9)	(289,1)	(1,0)	(1,0)	(1,0)	(1,0)	(1,0)	(1,0)	(1,0)	(1,0)	(1,0)	(1,0)	(1,0)	(1,0)	(1,0)	(1,0)	
L1D -288>	(-126,20)	(1,1)	(-62,69)	(188,3)	(-74,0)	(1,0)	(1,0)	(1,0)	(1,0)	(1,0)	(1,0)	(1,0)	(1,0)	(1,0)	(1,0)	(1,0)	
L1D -287>	(-1,8)	(288,2)	(1,0)	(1,0)	(1,0)	(1,0)	(1,0)	(1,0)	(1,0)	(1,0)	(1,0)	(1,0)	(1,0)	(1,0)	(1,0)	(1,0)	
L1D -286>	(300,71)	(306,3)	(54,1)	(146,16)	(-64,1)	(-76,1)	(-1,0)	(1,0)	(1,0)	(1,0)	(1,0)	(1,0)	(1,0)	(1,0)	(1,0)	(1,0)	
L1D -285>	(-105,42)	(67,21)	(-1,6)	(286,1)	(1,0)	(1,0)	(1,0)	(1,0)	(1,0)	(1,0)	(1,0)	(1,0)	(1,0)	(1,0)	(1,0)	(1,0)	
L1D -284>	(138,99)	(286,27)	(-38,28)	(-1,1)	(-78,4)	(-104,9)	(54,15)	(304,2)	(-66,1)	(284,1)	(1,0)	(1,0)	(1,0)	(1,0)	(1,0)	(1,0)	
L1D -283>	(308,123)	(-1,0)	(404,0)	(402,0)	(1,0)	(1,0)	(1,0)	(1,0)	(1,0)	(1,0)	(1,0)	(1,0)	(1,0)	(1,0)	(1,0)	(1,0)	
L1D -282>	(-28,31)	(1,1)	(200,18)	(283,1)	(67,1)	(1,0)	(1,0)	(1,0)	(1,0)	(1,0)	(1,0)	(1,0)	(1,0)	(1,0)	(1,0)	(1,0)	
L1D -281>	(283,1)	(-1,2)	(1,4)	(1,0)	(1,0)	(1,0)	(1,0)	(1,0)	(1,0)	(1,0)	(1,0)	(1,0)	(1,0)	(1,0)	(1,0)	(1,0)	
L1D -280>	(200,35)	(4,21)	(-30,75)	(-1,22)	(1,22)	(-2,8)	(281,15)	(-116,2)	(280,4)	(1,0)	(1,0)	(1,0)	(1,0)	(1,0)	(1,0)	(1,0)	
L1D -279>	(-105,99)	(-1,115)	(283,9)	(280,69)	(279,10)	(1,0)	(1,0)	(1,0)	(1,0)	(1,0)	(1,0)	(1,0)	(1,0)	(1,0)	(1,0)	(1,0)	
L1D -278>	(200,101)	(259,12)	(279,1)	(1,0)	(1,0)	(1,0)	(1,0)	(1,0)	(1,0)	(1,0)	(1,0)	(1,0)	(1,0)	(1,0)	(1,0)	(1,0)	
L1D -277>	(-1,1)	(1,0)	(1,0)	(1,0)	(1,0)	(1,0)	(1,0)	(1,0)	(1,0)	(1,0)	(1,0)	(1,0)	(1,0)	(1,0)	(1,0)	(1,0)	
L1D -276>	(-1,1)	(-88,1)	(1,0)	(1,0)	(1,0)	(1,0)	(1,0)	(1,0)	(1,0)	(1,0)	(1,0)	(1,0)	(1,0)	(1,0)	(1,0)	(1,0)	
L1D -275>	(-105,80)	(-1,4)	(276,2)	(1,0)	(1,0)	(1,0)	(1,0)	(1,0)	(1,0)	(1,0)	(1,0)	(1,0)	(1,0)	(1,0)	(1,0)	(1,0)	
L1D -274>	(224,1)	(148,1)	(134,14)	(1,0)	(1,0)	(1,0)	(1,0)	(1,0)	(1,0)	(1,0)	(1,0)	(1,0)	(1,0)	(1,0)	(1,0)	(1,0)	
L1D -273>	(1,0)	(1,0)	(1,0)	(1,0)	(1,0)	(1,0)	(1,0)	(1,0)	(1,0)	(1,0)	(1,0)	(1,0)	(1,0)	(1,0)	(1,0)	(1,0)	
L1D -272>	(300,1)	(1,0)	(1,0)	(1,0)	(1,0)	(1,0)	(1,0)	(1,0)	(1,0)	(1,0)	(1,0)	(1,0)	(1,0)	(1,0)	(1,0)	(1,0)	
L1D -271>	(-1,4)	(1,0)	(1,0)	(1,0)	(1,0)	(1,0)	(1,0)	(1,0)	(1,0)	(1,0)	(1,0)	(1,0)	(1,0)	(1,0)	(1,0)	(1,0)	
L1D -270>	(284,95)	(-66,0)	(271,0)	(304,3)	(-94,2)	(-78,3)	(-1,0)	(1,0)	(1,0)	(1,0)	(1,0)	(1,0)	(1,0)	(1,0)	(1,0)	(1,0)	
L1D -269>	(-1,127)	(270,70)	(269,7)	(1,0)	(1,0)	(1,0)	(1,0)	(1,0)	(1,0)	(1,0)	(1,0)	(1,0)	(1,0)	(1,0)	(1,0)	(1,0)	
L1D -268>	(1,1)	(-94,13)	(269,1)	(1,0)	(1,0)	(1,0)	(1,0)	(1,0)	(1,0)	(1,0)	(1,0)	(1,0)	(1,0)	(1,0)	(1,0)	(1,0)	
L1D -267>	(-1,7)	(236,44)	(268,1)	(1,0)	(1,0)	(1,0)	(1,0)	(1,0)	(1,0)	(1,0)	(1,0)	(1,0)	(1,0)	(1,0)	(1,0)	(1,0)	
L1D -266>	(236,70)	(1,0)	(1,0)	(1,0)	(1,0)	(1,0)	(1,0)	(1,0)	(1,0)	(1,0)	(1,0)	(1,0)	(1,0)	(1,0)	(1,0)	(1,0)	
L1D -265>	(262,82)	(-1,4)	(236,99)	(1,0)	(1,0)	(1,0)	(1,0)	(1,0)	(1,0)	(1,0)	(1,0)	(1,0)	(1,0)	(1,0)	(1,0)	(1,0)	
L1D -264>	(262,0)	(394,0)	(-24,0)	(388,0)	(236,94)	(-150,0)	(1,0)	(1,0)	(1,0)	(1,0)	(1,0)	(1,0)	(1,0)	(1,0)	(1,0)	(1,0)	
L1D -263>	(-1,2)	(1,0)	(1,0)	(1,0)	(1,0)	(1,0)	(1,0)	(1,0)	(1,0)	(1,0)	(1,0)	(1,0)	(1,0)	(1,0)	(1,0)	(1,0)	
L1D -262>	(-24,62)	(260,15)	(226,1)	(171,1)	(1,0)	(1,0)	(1,0)	(1,0)	(1,0)	(1,0)	(1,0)	(1,0)	(1,0)	(1,0)	(1,0)	(1,0)	
L1D -261>	(-1,2)	(1,0)	(1,0)	(1,0)	(1,0)	(1,0)	(1,0)	(1,0)	(1,0)	(1,0)	(1,0)	(1,0)	(1,0)	(1,0)	(1,0)	(1,0)	
L1D -260>	(30,97)	(-24,13)	(224,2)	(-90,5)	(-30,3)	(1,0)	(1,0)	(1,0)	(1,0)	(1,0)	(1,0)	(1,0)	(1,0)	(1,0)	(1,0)	(1,0)	
L1D -259>	(-1,2)	(278,14)	(1,0)	(1,0)	(1,0)	(1,0)	(1,0)	(1,0)	(1,0)	(1,0)	(1,0)	(1,0)	(1,0)	(1,0)	(1,0)	(1,0)	
L1D -258>	(1,0)	(1,0)	(1,0)	(1,0)	(1,0)	(1,0)	(1,0)	(1,0)	(1,0)	(1,0)	(1,0)	(1,0)	(1,0)	(1,0)	(1,0)	(1,0)	
L1D -257>	(263,1)	(1,0)	(1,0)	(1,0)	(1,0)	(1,0)	(1,0)	(1,0)	(1,0)	(1,0)	(1,0)	(1,0)	(1,0)	(1,0)	(1,0)	(1,0)	
L1D -256>	(1,0)	(1,0)	(1,0)	(1,0)	(1,0)	(1,0)	(1,0)	(1,0)	(1,0)	(1,0)	(1,0)	(1,0)	(1,0)	(1,0)	(1,0)	(1,0)	
L1D -255>	(-1,2)	(1,0)	(1,0)	(1,0)	(1,0)	(1,0)	(1,0)	(1,0)	(1,0)	(1,0)	(1,0)	(1,0)	(1,0)	(1,0)	(1,0)	(1,0)	
L1D -254>	(1,1)	(-74,3)	(1,0)	(1,0)	(1,0)	(1,0)	(1,0)	(1,0)	(1,0)	(1,0)	(1,0)	(1,0)	(1,0)	(1,0)	(1,0)	(1,0)	
L1D -253>	(-1,1)	(1,0)	(1,0)	(1,0)	(1,0)	(1,0)	(1,0)	(1,0)	(1,0)	(1,0)	(1,0)	(1,0)	(1,0)	(1,0)	(1,0)	(1,0)	
L1D -252>	(206,22)	(164,20)	(253,1)	(1,0)	(1,0)	(1,0)	(1,0)	(1,0)	(1,0)	(1,0)	(1,0)	(1,0)	(1,0)	(1,0)	(1,0)	(1,0)	
L1D -251>	(-1,1)	(1,0)	(1,0)	(1,0)	(1,0)	(1,0)	(1,0)	(1,0)	(1,0)	(1,0)	(1,0)	(1,0)	(1,0)	(1,0)	(1,0)	(1,0)	
L1D -250>	(294,20)	(206,20)	(1,0)	(1,0)	(1,0)	(1,0)	(1,0)	(1,0)	(1,0)	(1,0)	(1,0)	(1,0)	(1,0)	(1,0)	(1,0)	(1,0)	
L1D -249>	(-1,1)	(250,1)	(1,0)	(1,0)	(1,0)	(1,0)	(1,0)	(1,0)	(1,0)	(1,0)	(1,0)	(1,0)	(1,0)	(1,0)	(1,0)	(1,0)	
L1D -248>	(250,20)	(206,20)	(240,41)	(98,19)	(1,0)	(1,0)	(1,0)	(1,0)	(1,0)	(1,0)	(1,0)	(1,0)	(1,0)	(1,0)	(1,0)	(1,0)	
L1D -247>	(-1,0)	(249,0)	(75,83)	(31,0)	(1,0)	(1,0)	(1,0)	(1,0)	(1,0)	(1,0)	(1,0)	(1,0)	(1,0)	(1,0)	(1,0)	(1,0)	
L1D -246>	(1,3)	(392,2)	(294,2)	(-1,3)	(247,4)	(-24,72)	(246,1)	(-30,0)	(260,0)	(274,0)	(1,0)	(1,0)	(1,0)	(1,0)	(1,0)	(1,0)	
L1D -245>	(-1,123)	(245,5)	(246,70)	(31,10)	(1,0)	(1,0)	(1,0)	(1,0)	(1,0)	(1,0)	(1,0)	(1,0)	(1,0)	(1,0)	(1,0)	(1,0)	
L1D -244>	(12,99)	(148,22)	(-1,1)	(1,0)	(1,0)	(1,0)	(1,0)	(1,0)	(1,0)	(1,0)	(1,0)	(1,0)	(1,0)	(1,0)	(1,0)	(1,0)	
L1D -243>	(-1,5)	(244,1)	(1,0)	(1,0)	(1,0)	(1,0)	(1,0)	(1,0)	(1,0)	(1,0)	(1,0)	(1,0)	(1,0)	(1,0)	(1,0)	(1,0)	
L1D -242>	(-1,22)	(150,20)	(1,23)	(243,15)	(42,2)	(242,5)	(1,0)	(1,0)	(1,0)	(1,0)	(1,0)	(1,0)	(1,0)	(1,0)	(1,0)	(1,0)	
L1D -241>	(-1,127)	(241,9)	(242,71)	(1,0)	(1,0)	(1,0)	(1,0)	(1,0)	(1,0)	(1,0)	(1,0)	(1,0)	(1,0)	(1,0)	(1,0)	(1,0)	
L1D -240>	(206,20)	(-82,20)	(-102,42)	(119,60)	(1,0)	(1,0)	(1,0)	(1,0)	(1,0)	(1,0)	(1,0)	(1,0)	(1,0)	(1,0)	(1,0)	(1,0)	
L1D -239>	(-1,2)	(1,0)	(1,0)	(1,0)	(1,0)	(1,0)	(1,0)	(1,0)	(1,0)	(1,0)	(1,0)	(1,0)	(1,0)	(1,0)	(1,0)	(1,0)	
L1D -238>	(8,22)	(-82,21)	(1,0)	(1,0)	(1,0)	(1,0)	(1,0)	(1,0)	(1,0)	(1,0)	(1,0)	(1,0)	(1,0)	(1,0)	(1,0)	(1,0)	
L1D -237>	(1,0)	(1,0)	(1,0)	(1,0)	(1,0)	(1,0)	(1,0)	(1,0)	(1,0)	(1,0)	(1,0)	(1,0)	(1,0)	(1,0)	(1,0)	(1,0)	
L1D -236>	(140,19)	(1,0)	(1,0)	(1,0)	(1,0)	(1,0)	(1,0)	(1,0)	(1,0)	(1,0)	(1,0)	(1,0)	(1,0)	(1,0)	(1,0)	(1,0)	
L1D -235>	(-1,2)	(1,0)	(1,0)	(1,0)	(1,0)	(1,0)	(1,0)	(1,0)	(1,0)	(1,0)	(1,0)	(1,0)	(1,0)	(1,0)	(1,0)	(1,0)	
L1D -234>	(-206,1)	(238,22)	(24,40)	(1,0)	(1,0)	(1,0)	(1,0)	(1,0)	(1,0)	(1,0)	(1,0)	(1,0)	(1,0)	(1,0)	(1,0)	(1,0)	
L1D -233>	(-1,2)	(233,1)	(1,0)	(1,0)	(1,0)	(1,0)	(1,0)	(1,0)	(1,0)	(1,0)	(1,0)	(1,0)	(1,0)	(1,0)	(1,0)	(1,0)	
L1D -232>	(255,0)	(84,0)	(238,90)	(112,0)	(44,3)	(114,2)	(144,0)	(234,0)	(132,0)	(136,0)	(-90,0)	(208,3)	(-198,6)	(29,0)	(148,4)	(-196,10)	
L1D -231>	(1,0)	(1,0)	(1,0)	(1,0)	(1,0)	(1,0)	(1,0)	(1,0)	(1,0)	(1,0)	(1,0)	(1,0)	(1,0)	(1,0)	(1,0)	(1,0)	
L1D -230>	(234,0)	(-54,1)	(-196,12)	(160,0)	(-90,0)	(-8,0)	(12,1)	(-60,0)	(206,0)	(4,0)	(212,0)	(-64,0)	(-200,0)	(-66,5)	(-198,122)	(-62,22)	
L1D -229>	(1,0)	(1,0)	(1,0)	(1,0)	(1,0)	(1,0)	(1,0)	(1,0)	(1,0)	(1,0)	(1,0)	(1,0)	(1,0)	(1,0)	(1,0)	(1,0)	
L1D -228>	(-188,0)	(-2,1)	(-66,0)	(-4,1)	(96,0)	(-64,88)	(-68,21)	(1,0)	(1,0)	(1,0)	(1,0)	(1,0)	(1,0)	(1,0)	(1,0)	(1,0)	
L1D -227>	(1,1)	(1,0)	(1,0)	(1,0)	(1,0)	(1,0)	(1,0)	(1,0)	(1,0)	(1,0)	(1,0)	(1,0)	(1,0)	(1,0)	(1,0)	(1,0)	
L1D -226>	(-204,55)	(248,119)	(245,1)	(57,2)	(-102,1)	(1,0)	(1,0)	(1,0)	(1,0)	(1,0)	(1,0)	(1,0)	(1,0)	(1,0)	(1,0)	(1,0)	
L1D -225>	(-4,19)	(1,0)	(1,0)	(1,0)	(1,0)	(1,0)	(1,0)	(1,0)	(1,0)	(1,0)	(1,0)	(1,0)	(1,0)	(1,0)	(1,0)	(1,0)	
L1D -224>	(78,77)	(226,0)	(140,54)	(84,1)	(134,0)	(132,7)	(1,0)	(1,0)	(1,0)	(1,0)	(1,0)	(1,0)	(1,0)	(1,0)	(1,0)	(1,0)	
L1D -223>	(1,0)	(1,0)	(1,0)	(1,0)	(1,0)	(1,0)	(1,0)	(1,0)	(1,0)	(1,0)	(1,0)	(1,0)	(1,0)	(1,0)	(1,0)	(1,0)	
L1D -222>	(1,1)	(1,0)	(1,0)	(1,0)	(1,0)	(1,0)	(1,0)	(1,0)	(1,0)	(1,0)	(1,0)	(1,0)	(1,0)	(1,0)	(1,0)	(1,0)	
L1D -221>	(-1,1)	(1,0)	(1,0)	(1,0)	(1,0)	(1,0)	(1,0)	(1,0)	(1,0)	(1,0)	(1,0)	(1,0)	(1,0)	(1,0)	(1,0)	(1,0)	
L1D -220>	(162,75)	(10,60)	(19,0)	(-42,0)	(134,0)	(1,0)	(1,0)	(1,0)	(1,0)	(1,0)	(1,0)	(1,0)	(1,0)	(1,0)	(1,0)	(1,0)	
L1D -219>	(-29,14)	(-1,1)	(1,0)	(1,0)	(1,0)	(1,0)	(1,0)	(1,0)	(1,0)	(1,0)	(1,0)	(1,0)	(1,0)	(1,0)	(1,0)	(1,0)	
L1D -218>	(-12,78)	(24,54)	(8,22)	(94,41)	(-1,29)	(247,38)	(-2,39)	(74,21)	(-59,1)	(176,45)	(96,7)	(20,43)	(1,0)	(1,0)	(1,0)	(1,0)	
L1D -217>	(-67,42)	(-1,1)	(218,1)	(-4,14)	(1,0)	(1,0)	(1,0)	(1,0)	(1,0)	(1,0)	(1,0)	(1,0)	(1,0)	(1,0)	(1,0)	(1,0)	
L1D -216>	(-4,105)	(193,28)	(1,0)	(1,0)	(1,0)	(1,0)	(1,0)	(1,0)	(1,0)	(1,0)	(1,0)	(1,0)	(1,0)	(1,0)	(1,0)	(1,0)	
L1D -215>	(26,113)	(1,0)	(1,0)	(1,0)	(1,0)	(1,0)	(1,0)	(1,0)	(1,0)	(1,0)	(1,0)	(1,0)	(1,0)	(1,0)	(1,0)	(1,0)	
L1D -214>	(60,108)	(-4,0)	(96,0)	(168,1)	(12,0)	(58,2)	(1,0)	(1,0)	(1,0)	(1,0)	(1,0)	(1,0)	(1,0)	(1,0)	(1,0)	(1,0)	
L1D -213>	(-1,2)	(1,0)	(1,0)	(1,0)	(1,0)	(1,0)	(1,0)	(1,0)	(1,0)	(1,0)	(1,0)	(1,0)	(1,0)	(1,0)	(1,0)	(1,0)	
L1D -212>	(-4,66)	(196,0)	(206,1)	(188,0)	(148,1)	(18,0)	(444,5)	(222,40)	(168,10)	(158,67)	(160,4)	(102,3)	(8,2)	(104,1)	(119,0)	(82,0)	
L1D -211>	(175,41)	(-1,1)	(392,1)	(1,0)	(1,0)	(1,0)	(1,0)	(1,0)	(1,0)	(1,0)	(1,0)	(1,0)	(1,0)	(1,0)	(1,0)	(1,0)	
L1D -210>	(20,67)	(200,64)	(122,0)	(54,1)	(170,0)	(-230,0)	(280,1)	(108,0)	(278,2)	(296,0)	(29,0)	(-24,0)	(-4,0)	(1,0)	(1,0)	(1,0)	
L1D -209>	(1,0)	(1,0)	(1,0)	(1,0)	(1,0)	(1,0)	(1,0)	(1,0)	(1,0)	(1,0)	(1,0)	(1,0)	(1,0)	(1,0)	(1,0)	(1,0)	
L1D -208>	(96,104)	(-4,7)	(440,6)	(430,7)	(160,7)	(166,20)	(218,39)	(206,12)	(1,0)	(1,0)	(1,0)	(1,0)	(1,0)	(1,0)	(1,0)	(1,0)	
L1D -207>	(208,1)	(205,1)	(-1,1)	(1,0)	(1,0)	(1,0)	(1,0)	(1,0)	(1,0)	(1,0)	(1,0)	(1,0)	(1,0)	(1,0)	(1,0)	(1,0)	
L1D -206>	(-14,22)	(230,1)	(48,41)	(1,0)	(1,0)	(1,0)	(1,0)	(1,0)	(1,0)	(1,0)	(1,0)	(1,0)	(1,0)	(1,0)	(1,0)	(1,0)	
L1D -205>	(203,1)	(1,0)	(1,0)	(1,0)	(1,0)	(1,0)	(1,0)	(1,0)	(1,0)	(1,0)	(1,0)	(1,0)	(1,0)	(1,0)	(1,0)	(1,0)	
L1D -204>	(76,100)	(4,20)	(78,105)	(200,83)	(218,105)	(146,83)	(116,22)	(108,21)	(10,22)	(-26,5)	(1,0)	(1,0)	(1,0)	(1,0)	(1,0)	(1,0)	
L1D -203>	(108,42)	(115,73)	(87,2)	(145,1)	(1,0)	(1,0)	(1,0)	(1,0)	(1,0)	(1,0)	(1,0)	(1,0)	(1,0)	(1,0)	(1,0)	(1,0)	
L1D -202>	(42,86)	(136,4)	(132,17)	(118,14)	(150,2)	(-84,2)	(100,2)	(236,2)	(16,12)	(-1,0)	(1,0)	(1,0)	(1,0)	(1,0)	(1,0)	(1,0)	
L1D -201>	(113,51)	(143,20)	(187,1)	(101,3)	(1,0)	(1,0)	(1,0)	(1,0)	(1,0)	(1,0)	(1,0)	(1,0)	(1,0)	(1,0)	(1,0)	(1,0)	
L1D -200>	(16,67)	(106,61)	(136,10)	(-10,2)	(138,2)	(204,2)	(92,49)	(1,0)	(1,0)	(1,0)	(1,0)	(1,0)	(1,0)	(1,0)	(1,0)	(1,0)	
L1D -199>	(2,1)	(197,1)	(-1,1)	(1,0)	(1,0)	(1,0)	(1,0)	(1,0)	(1,0)	(1,0)	(1,0)	(1,0)	(1,0)	(1,0)	(1,0)	(1,0)	
L1D -198>	(196,106)	(88,0)	(-6,0)	(132,0)	(136,0)	(-2,2)	(2,71)	(26,3)	(178,0)	(1,0)	(1,0)	(1,0)	(1,0)	(1,0)	(1,0)	(1,0)	
L1D -197>	(0,92)	(70,0)	(1,0)	(1,0)	(1,0)	(1,0)	(1,0)	(1,0)	(1,0)	(1,0)	(1,0)	(1,0)	(1,0)	(1,0)	(1,0)	(1,0)	
L1D -196>	(-6,2)	(430,105)	(10,1)	(238,2)	(194,0)	(114,1)	(200,0)	(142,1)	(88,0)	(166,0)	(-2,22)	(16,75)	(208,7)	(32,12)	(1,0)	(1,0)	
L1D -195>	(195,93)	(-1,0)	(1,0)	(1,0)	(1,0)	(1,0)	(1,0)	(1,0)	(1,0)	(1,0)	(1,0)	(1,0)	(1,0)	(1,0)	(1,0)	(1,0)	
L1D -194>	(150,9)	(70,82)	(16,4)	(202,1)	(52,1)	(-18,5)	(192,53)	(102,18)	(-14,3)	(26,38)	(100,2)	(1,0)	(1,0)	(1,0)	(1,0)	(1,0)	
L1D -193>	(224,44)	(1,0)	(1,0)	(1,0)	(1,0)	(1,0)	(1,0)	(1,0)	(1,0)	(1,0)	(1,0)	(1,0)	(1,0)	(1,0)	(1,0)	(1,0)	
L1D -192>	(138,0)	(196,92)	(188,2)	(284,0)	(190,0)	(178,0)	(-2,0)	(186,16)	(286,68)	(282,1)	(288,3)	(1,0)	(1,0)	(1,0)	(1,0)	(1,0)	
L1D -191>	(162,21)	(1,0)	(1,0)	(1,0)	(1,0)	(1,0)	(1,0)	(1,0)	(1,0)	(1,0)	(1,0)	(1,0)	(1,0)	(1,0)	(1,0)	(1,0)	
L1D -190>	(188,106)	(16,70)	(124,38)	(31,15)	(-2,12)	(72,4)	(-118,2)	(196,4)	(34,1)	(148,2)	(138,20)	(186,13)	(1,0)	(1,0)	(1,0)	(1,0)	
L1D -189>	(-120,44)	(-1,2)	(1,0)	(1,0)	(1,0)	(1,0)	(1,0)	(1,0)	(1,0)	(1,0)	(1,0)	(1,0)	(1,0)	(1,0)	(1,0)	(1,0)	
L1D -188>	(-15,2)	(186,0)	(-94,106)	(262,3)	(80,0)	(144,0)	(72,0)	(130,0)	(26,0)	(208,0)	(124,0)	(206,0)	(270,0)	(30,0)	(84,0)	(118,0)	
L1D -187>	(90,125)	(1,0)	(1,0)	(1,0)	(1,0)	(1,0)	(1,0)	(1,0)	(1,0)	(1,0)	(1,0)	(1,0)	(1,0)	(1,0)	(1,0)	(1,0)	
L1D -186>	(-2,114)	(-16,7)	(178,0)	(64,0)	(24,2)	(58,0)	(182,0)	(72,0)	(-10,0)	(1,0)	(1,0)	(1,0)	(1,0)	(1,0)	(1,0)	(1,0)	
L1D -185>	(181,21)	(209,36)	(165,100)	(90,10)	(106,9)	(1,0)	(1,0)	(1,0)	(1,0)	(1,0)	(1,0)	(1,0)	(1,0)	(1,0)	(1,0)	(1,0)	
L1D -184>	(22,69)	(182,0)	(-46,10)	(-164,1)	(-156,1)	(-144,1)	(-152,0)	(1,0)	(1,0)	(1,0)	(1,0)	(1,0)	(1,0)	(1,0)	(1,0)	(1,0)	
L1D -183>	(1,0)	(1,0)	(1,0)	(1,0)	(1,0)	(1,0)	(1,0)	(1,0)	(1,0)	(1,0)	(1,0)	(1,0)	(1,0)	(1,0)	(1,0)	(1,0)	
L1D -182>	(-26,26)	(162,0)	(106,2)	(132,49)	(-14,0)	(118,0)	(72,76)	(96,0)	(192,0)	(-20,2)	(104,0)	(46,1)	(146,0)	(1,0)	(1,0)	(1,0)	
L1D -181>	(95,12)	(167,65)	(165,58)	(67,27)	(87,118)	(115,23)	(179,9)	(93,0)	(1,0)	(1,0)	(1,0)	(1,0)	(1,0)	(1,0)	(1,0)	(1,0)	
L1D -180>	(-2,0)	(116,10)	(82,91)	(156,0)	(160,1)	(112,1)	(50,0)	(72,0)	(-28,0)	(145,2)	(190,0)	(1,0)	(1,0)	(1,0)	(1,0)	(1,0)	
L1D -179>	(-95,115)	(-203,1)	(181,1)	(-6,0)	(87,9)	(1,0)	(1,0)	(1,0)	(1,0)	(1,0)	(1,0)	(1,0)	(1,0)	(1,0)	(1,0)	(1,0)	
L1D -178>	(102,100)	(182,27)	(109,26)	(74,123)	(130,64)	(2,1)	(192,1)	(174,15)	(1,0)	(1,0)	(1,0)	(1,0)	(1,0)	(1,0)	(1,0)	(1,0)	
L1D -177>	(173,13)	(1,0)	(1,0)	(1,0)	(1,0)	(1,0)	(1,0)	(1,0)	(1,0)	(1,0)	(1,0)	(1,0)	(1,0)	(1,0)	(1,0)	(1,0)	
L1D -176>	(346,0)	(4,15)	(347,7)	(345,0)	(348,0)	(-172,0)	(344,0)	(144,0)	(2,6)	(172,0)	(193,3)	(175,77)	(184,0)	(9,0)	(224,0)	(-168,0)	
L1D -175>	(4,110)	(-168,4)	(-170,0)	(348,0)	(347,2)	(3,5)	(172,11)	(97,0)	(343,0)	(-172,5)	(-169,0)	(176,0)	(174,0)	(346,0)	(2,0)	(344,0)	
L1D -174>	(173,96)	(-172,50)	(346,5)	(2,3)	(344,7)	(-170,3)	(210,2)	(4,14)	(40,1)	(-2,0)	(94,0)	(172,7)	(-173,0)	(171,0)	(3,41)	(343,1)	
L1D -173>	(-3,5)	(345,3)	(344,19)	(174,95)	(-172,5)	(173,67)	(3,25)	(-171,9)	(1,34)	(171,2)	(343,2)	(172,99)	(175,1)	(-1,4)	(2,5)	(170,30)	
L1D -172>	(346,1)	(170,6)	(174,3)	(345,11)	(1,15)	(171,5)	(-171,2)	(-170,1)	(-4,3)	(3,1)	(173,98)	(175,4)	(-3,11)	(190,2)	(-172,2)	(169,22)	
L1D -171>	(0,14)	(172,12)	(1,64)	(-3,28)	(344,31)	(170,100)	(-1,119)	(342,14)	(173,46)	(-172,37)	(174,8)	(343,10)	(-173,58)	(2,1)	(-2,44)	(168,22)	
L1D -170>	(173,100)	(172,55)	(171,3)	(342,11)	(-1,53)	(-174,4)	(20,26)	(169,17)	(-4,7)	(344,2)	(174,43)	(-172,29)	(-173,0)	(168,0)	(1,3)	(-3,6)	
L1D -169>	(174,0)	(171,66)	(-1,40)	(1,5)	(-173,0)	(95,0)	(-172,7)	(168,4)	(97,5)	(-171,5)	(170,0)	(-2,1)	(342,0)	(173,0)	(344,0)	(341,0)	
L1D -168>	(-52,0)	(172,72)	(1,0)	(171,0)	(120,0)	(170,0)	(-4,15)	(-44,1)	(22,0)	(344,1)	(343,0)	(340,0)	(-172,0)	(-176,2)	(208,0)	(-2,2)	
L1D -167>	(-128,24)	(-2,2)	(-172,30)	(-1,5)	(1,25)	(172,1)	(67,43)	(2,104)	(75,37)	(171,0)	(1,0)	(1,0)	(1,0)	(1,0)	(1,0)	(1,0)	
L1D -166>	(210,21)	(186,81)	(-15,20)	(202,22)	(-172,1)	(142,20)	(74,59)	(162,18)	(165,5)	(-1,2)	(1,0)	(1,0)	(1,0)	(1,0)	(1,0)	(1,0)	
L1D -165>	(-105,97)	(344,0)	(9,0)	(-1,3)	(1,0)	(172,1)	(-2,0)	(-172,1)	(2,0)	(3,0)	(281,0)	(1,0)	(1,0)	(1,0)	(1,0)	(1,0)	
L1D -164>	(186,62)	(80,44)	(136,41)	(210,39)	(92,24)	(88,25)	(13,15)	(8,12)	(-2,1)	(1,0)	(1,0)	(1,0)	(1,0)	(1,0)	(1,0)	(1,0)	
L1D -163>	(-105,71)	(167,2)	(171,19)	(172,0)	(-1,9)	(1,0)	(1,0)	(1,0)	(1,0)	(1,0)	(1,0)	(1,0)	(1,0)	(1,0)	(1,0)	(1,0)	
L1D -162>	(66,10)	(68,9)	(206,0)	(-24,126)	(188,0)	(-42,0)	(186,23)	(116,3)	(26,0)	(118,0)	(1,0)	(1,0)	(1,0)	(1,0)	(1,0)	(1,0)	
L1D -161>	(1,1)	(1,0)	(1,0)	(1,0)	(1,0)	(1,0)	(1,0)	(1,0)	(1,0)	(1,0)	(1,0)	(1,0)	(1,0)	(1,0)	(1,0)	(1,0)	
L1D -160>	(191,4)	(206,119)	(-32,4)	(-8,20)	(116,19)	(208,23)	(150,4)	(-2,19)	(90,19)	(100,15)	(1,0)	(1,0)	(1,0)	(1,0)	(1,0)	(1,0)	
L1D -159>	(74,73)	(1,0)	(-43,0)	(3,2)	(1,0)	(1,0)	(1,0)	(1,0)	(1,0)	(1,0)	(1,0)	(1,0)	(1,0)	(1,0)	(1,0)	(1,0)	
L1D -158>	(132,38)	(-2,65)	(210,64)	(118,16)	(18,0)	(178,2)	(76,3)	(202,40)	(80,4)	(90,4)	(114,1)	(102,1)	(92,2)	(160,20)	(14,3)	(126,16)	
L1D -157>	(46,102)	(1,1)	(-1,2)	(1,0)	(1,0)	(1,0)	(1,0)	(1,0)	(1,0)	(1,0)	(1,0)	(1,0)	(1,0)	(1,0)	(1,0)	(1,0)	
L1D -156>	(172,4)	(4,1)	(-2,0)	(12,7)	(-32,0)	(10,42)	(208,103)	(116,6)	(-12,6)	(112,0)	(152,1)	(168,0)	(106,0)	(120,1)	(20,0)	(1,0)	
L1D -155>	(56,118)	(-62,20)	(-1,1)	(1,0)	(1,0)	(1,0)	(1,0)	(1,0)	(1,0)	(1,0)	(1,0)	(1,0)	(1,0)	(1,0)	(1,0)	(1,0)	
L1D -154>	(14,2)	(100,0)	(68,0)	(-2,0)	(1,0)	(226,5)	(106,100)	(26,26)	(208,0)	(200,0)	(-66,6)	(138,1)	(96,6)	(1,0)	(1,0)	(1,0)	
L1D -153>	(151,6)	(148,77)	(149,9)	(-116,1)	(278,3)	(276,0)	(150,3)	(-1,0)	(1,0)	(1,0)	(1,0)	(1,0)	(1,0)	(1,0)	(1,0)	(1,0)	
L1D -152>	(96,64)	(188,0)	(-12,0)	(70,0)	(68,4)	(114,8)	(118,0)	(-18,0)	(208,1)	(26,0)	(116,0)	(1,0)	(1,0)	(1,0)	(1,0)	(1,0)	
L1D -151>	(52,10)	(90,121)	(-66,5)	(122,5)	(-5,40)	(8,0)	(1,0)	(1,0)	(1,0)	(1,0)	(1,0)	(1,0)	(1,0)	(1,0)	(1,0)	(1,0)	
L1D -150>	(206,0)	(34,0)	(210,80)	(167,0)	(138,0)	(188,0)	(100,0)	(22,0)	(162,0)	(-40,0)	(190,1)	(192,0)	(96,0)	(186,11)	(208,1)	(126,0)	
L1D -149>	(106,77)	(-8,0)	(-12,1)	(1,0)	(1,0)	(1,0)	(1,0)	(1,0)	(1,0)	(1,0)	(1,0)	(1,0)	(1,0)	(1,0)	(1,0)	(1,0)	
L1D -148>	(52,0)	(210,90)	(6,0)	(-44,0)	(160,0)	(-84,0)	(120,11)	(150,0)	(146,0)	(162,0)	(42,2)	(24,0)	(208,8)	(206,4)	(416,0)	(216,0)	
L1D -147>	(223,20)	(133,1)	(1,1)	(-12,66)	(-1,1)	(1,0)	(1,0)	(1,0)	(1,0)	(1,0)	(1,0)	(1,0)	(1,0)	(1,0)	(1,0)	(1,0)	
L1D -146>	(210,10)	(208,71)	(1,1)	(-71,118)	(120,0)	(148,0)	(244,0)	(180,0)	(-26,0)	(152,1)	(-44,0)	(218,0)	(-2,0)	(194,1)	(-35,0)	(1,0)	
L1D -145>	(0,88)	(7,0)	(21,0)	(-36,0)	(82,0)	(116,3)	(-1,0)	(1,0)	(1,0)	(1,0)	(1,0)	(1,0)	(1,0)	(1,0)	(1,0)	(1,0)	
L1D -144>	(358,27)	(194,0)	(138,0)	(216,0)	(6,0)	(-8,1)	(104,0)	(428,0)	(96,2)	(-2,0)	(2,0)	(-72,0)	(-14,1)	(36,0)	(198,0)	(72,96)	
L1D -143>	(133,0)	(223,0)	(113,6)	(-5,0)	(115,93)	(147,1)	(-1,0)	(-8,1)	(181,0)	(-21,15)	(101,1)	(1,0)	(1,0)	(1,0)	(1,0)	(1,0)	
L1D -142>	(170,81)	(-76,101)	(40,20)	(50,39)	(76,7)	(49,27)	(126,23)	(188,2)	(16,52)	(122,37)	(152,23)	(59,1)	(1,1)	(1,0)	(1,0)	(1,0)	
L1D -141>	(1,0)	(1,0)	(1,0)	(1,0)	(1,0)	(1,0)	(1,0)	(1,0)	(1,0)	(1,0)	(1,0)	(1,0)	(1,0)	(1,0)	(1,0)	(1,0)	
L1D -140>	(26,12)	(218,8)	(102,37)	(-21,92)	(36,0)	(-14,1)	(54,3)	(-12,2)	(-94,4)	(215,80)	(194,0)	(-25,1)	(52,4)	(42,1)	(150,67)	(12,45)	
L1D -139>	(1,1)	(-4,63)	(-1,65)	(12,32)	(-25,9)	(-17,0)	(-12,0)	(1,0)	(1,0)	(1,0)	(1,0)	(1,0)	(1,0)	(1,0)	(1,0)	(1,0)	
L1D -138>	(38,0)	(0,0)	(52,0)	(-4,71)	(-2,2)	(78,0)	(144,0)	(308,0)	(140,0)	(48,0)	(212,0)	(164,0)	(228,0)	(114,0)	(232,0)	(11,2)	
L1D -137>	(71,13)	(-142,1)	(-1,1)	(13,2)	(-8,2)	(1,0)	(1,0)	(1,0)	(1,0)	(1,0)	(1,0)	(1,0)	(1,0)	(1,0)	(1,0)	(1,0)	
L1D -136>	(140,7)	(-78,97)	(-13,100)	(-46,1)	(100,1)	(42,91)	(144,12)	(148,2)	(78,4)	(50,13)	(-96,9)	(168,1)	(52,2)	(114,2)	(-56,2)	(124,5)	
L1D -135>	(1,0)	(1,0)	(1,0)	(1,0)	(1,0)	(1,0)	(1,0)	(1,0)	(1,0)	(1,0)	(1,0)	(1,0)	(1,0)	(1,0)	(1,0)	(1,0)	
L1D -134>	(68,1)	(-13,84)	(-4,6)	(72,73)	(132,0)	(-2,0)	(1,0)	(70,0)	(26,75)	(100,0)	(142,0)	(-6,0)	(34,13)	(-26,0)	(174,0)	(152,0)	
L1D -133>	(19,22)	(1,1)	(71,1)	(1,0)	(1,0)	(1,0)	(1,0)	(1,0)	(1,0)	(1,0)	(1,0)	(1,0)	(1,0)	(1,0)	(1,0)	(1,0)	
L1D -132>	(6,93)	(-2,3)	(72,6)	(-73,95)	(36,0)	(-4,76)	(128,5)	(110,5)	(40,8)	(96,0)	(46,0)	(120,0)	(-42,0)	(198,0)	(0,0)	(144,0)	
L1D -131>	(71,91)	(209,62)	(0,1)	(-1,1)	(1,0)	(1,0)	(1,0)	(1,0)	(1,0)	(1,0)	(1,0)	(1,0)	(1,0)	(1,0)	(1,0)	(1,0)	
L1D -130>	(-52,0)	(30,0)	(-264,3)	(28,0)	(206,0)	(72,106)	(18,1)	(196,0)	(1,0)	(1,0)	(1,0)	(1,0)	(1,0)	(1,0)	(1,0)	(1,0)	
L1D -129>	(131,21)	(196,41)	(74,126)	(1,2)	(-1,2)	(1,0)	(1,0)	(1,0)	(1,0)	(1,0)	(1,0)	(1,0)	(1,0)	(1,0)	(1,0)	(1,0)	
L1D -128>	(-19,0)	(186,0)	(135,0)	(68,0)	(172,0)	(-264,0)	(-2,0)	(72,0)	(120,0)	(294,102)	(40,34)	(-12,0)	(132,0)	(206,1)	(146,0)	(-58,0)	
L1D -127>	(1,39)	(25,102)	(-1,15)	(113,8)	(48,3)	(115,5)	(49,2)	(1,0)	(1,0)	(1,0)	(1,0)	(1,0)	(1,0)	(1,0)	(1,0)	(1,0)	
L1D -126>	(140,121)	(-264,28)	(98,79)	(-20,23)	(72,11)	(-86,42)	(-1,25)	(132,10)	(32,77)	(-26,11)	(1,21)	(24,9)	(48,6)	(49,19)	(-219,1)	(129,2)	
L1D -125>	(-1,88)	(1,1)	(1,0)	(1,0)	(1,0)	(1,0)	(1,0)	(1,0)	(1,0)	(1,0)	(1,0)	(1,0)	(1,0)	(1,0)	(1,0)	(1,0)	
L1D -124>	(-13,114)	(0,17)	(-21,2)	(210,5)	(32,11)	(208,5)	(-96,1)	(160,1)	(96,64)	(206,11)	(190,2)	(-26,114)	(29,19)	(44,9)	(144,3)	(108,4)	
L1D -123>	(124,0)	(106,0)	(-283,65)	(-1,0)	(1,0)	(1,0)	(1,0)	(1,0)	(1,0)	(1,0)	(1,0)	(1,0)	(1,0)	(1,0)	(1,0)	(1,0)	
L1D -122>	(-96,111)	(154,116)	(118,125)	(190,6)	(210,116)	(0,12)	(-76,8)	(42,31)	(14,10)	(150,11)	(-3,2)	(64,1)	(28,2)	(52,2)	(96,5)	(30,18)	
L1D -121>	(-27,77)	(-283,2)	(209,1)	(1,0)	(1,0)	(1,0)	(1,0)	(1,0)	(1,0)	(1,0)	(1,0)	(1,0)	(1,0)	(1,0)	(1,0)	(1,0)	
L1D -120>	(8,4)	(96,85)	(118,93)	(238,7)	(-3,2)	(28,1)	(94,0)	(190,0)	(150,0)	(162,1)	(309,0)	(148,13)	(178,2)	(-2,17)	(90,3)	(36,0)	
L1D -119>	(-1,16)	(-67,114)	(-283,35)	(87,119)	(181,21)	(1,0)	(1,0)	(1,0)	(1,0)	(1,0)	(1,0)	(1,0)	(1,0)	(1,0)	(1,0)	(1,0)	
L1D -118>	(6,3)	(112,0)	(26,3)	(16,0)	(54,1)	(32,9)	(-2,0)	(114,0)	(48,106)	(72,0)	(132,2)	(60,1)	(149,8)	(34,2)	(82,0)	(56,1)	
L1D -117>	(72,1)	(-1,4)	(115,1)	(-283,19)	(1,0)	(1,0)	(1,0)	(1,0)	(1,0)	(1,0)	(1,0)	(1,0)	(1,0)	(1,0)	(1,0)	(1,0)	
L1D -116>	(218,76)	(-4,1)	(236,2)	(112,27)	(108,2)	(194,3)	(26,6)	(110,7)	(172,2)	(208,3)	(82,25)	(36,10)	(158,9)	(180,3)	(100,5)	(114,2)	
L1D -115>	(209,78)	(113,77)	(87,124)	(201,1)	(185,0)	(179,16)	(121,0)	(181,35)	(101,8)	(154,3)	(26,0)	(1,0)	(1,0)	(1,0)	(1,0)	(1,0)	
L1D -114>	(168,8)	(24,16)	(130,123)	(222,111)	(58,0)	(94,2)	(100,20)	(118,3)	(34,0)	(6,4)	(78,1)	(146,0)	(-67,2)	(28,1)	(112,0)	(14,77)	
L1D -113>	(111,1)	(141,2)	(1,0)	(1,0)	(1,0)	(1,0)	(1,0)	(1,0)	(1,0)	(1,0)	(1,0)	(1,0)	(1,0)	(1,0)	(1,0)	(1,0)	
L1D -112>	(-30,2)	(60,4)	(-122,120)	(66,6)	(-12,2)	(98,1)	(-2,2)	(18,1)	(-80,5)	(54,4)	(40,0)	(-8,0)	(106,1)	(2,3)	(58,87)	(34,1)	
L1D -111>	(32,22)	(-48,82)	(1,2)	(-1,1)	(204,2)	(1,0)	(1,0)	(1,0)	(1,0)	(1,0)	(1,0)	(1,0)	(1,0)	(1,0)	(1,0)	(1,0)	
L1D -110>	(108,1)	(178,0)	(92,67)	(106,0)	(102,64)	(-30,71)	(114,2)	(-76,0)	(26,0)	(132,0)	(82,0)	(-4,1)	(36,0)	(18,0)	(180,0)	(140,0)	
L1D -109>	(179,122)	(-2,7)	(-6,13)	(23,3)	(26,2)	(202,1)	(-1,3)	(1,0)	(1,0)	(1,0)	(1,0)	(1,0)	(1,0)	(1,0)	(1,0)	(1,0)	
L1D -108>	(10,96)	(118,116)	(18,123)	(96,121)	(6,2)	(-10,123)	(100,29)	(12,3)	(50,3)	(-14,1)	(-12,5)	(84,16)	(-26,17)	(74,113)	(-100,3)	(102,5)	
L1D -107>	(-2,22)	(1,1)	(19,2)	(22,2)	(206,1)	(-1,2)	(1,0)	(1,0)	(1,0)	(1,0)	(1,0)	(1,0)	(1,0)	(1,0)	(1,0)	(1,0)	
L1D -106>	(18,0)	(88,0)	(22,2)	(136,79)	(150,0)	(58,0)	(16,0)	(92,0)	(34,1)	(28,8)	(114,0)	(96,2)	(80,68)	(-2,0)	(-12,0)	(20,1)	
L1D -105>	(294,109)	(-1,0)	(382,0)	(384,0)	(-2,0)	(398,0)	(388,0)	(164,0)	(1,0)	(1,0)	(1,0)	(1,0)	(1,0)	(1,0)	(1,0)	(1,0)	
L1D -104>	(-76,69)	(12,64)	(46,0)	(202,68)	(388,0)	(62,0)	(-18,0)	(119,0)	(-1,0)	(-6,0)	(94,0)	(-74,1)	(74,1)	(118,2)	(72,0)	(328,0)	
L1D -103>	(-2,42)	(169,45)	(97,86)	(67,105)	(95,2)	(24,1)	(-85,1)	(81,1)	(1,0)	(1,0)	(1,0)	(1,0)	(1,0)	(1,0)	(1,0)	(1,0)	
L1D -102>	(86,93)	(10,104)	(-80,73)	(22,31)	(106,2)	(84,100)	(58,26)	(12,67)	(40,7)	(108,7)	(48,1)	(30,8)	(-8,4)	(8,10)	(-14,7)	(20,1)	
L1D -101>	(113,83)	(223,19)	(-1,1)	(201,48)	(143,2)	(1,0)	(1,0)	(1,0)	(1,0)	(1,0)	(1,0)	(1,0)	(1,0)	(1,0)	(1,0)	(1,0)	
L1D -100>	(10,8)	(90,75)	(-108,72)	(96,4)	(22,71)	(114,7)	(186,13)	(138,1)	(110,1)	(154,35)	(30,6)	(8,8)	(-8,55)	(-67,1)	(-32,8)	(42,2)	
L1D -99>	(-10,98)	(-40,94)	(2,0)	(-8,0)	(209,73)	(-2,0)	(-56,0)	(-100,0)	(169,2)	(1,0)	(1,0)	(1,0)	(1,0)	(1,0)	(1,0)	(1,0)	
L1D -98>	(-2,3)	(96,78)	(30,1)	(114,66)	(24,87)	(34,11)	(44,89)	(152,10)	(63,34)	(-190,3)	(68,9)	(206,111)	(-42,23)	(-10,27)	(12,58)	(88,47)	
L1D -97>	(0,62)	(26,113)	(32,44)	(-2,29)	(101,5)	(4,23)	(10,14)	(1,0)	(1,0)	(1,0)	(1,0)	(1,0)	(1,0)	(1,0)	(1,0)	(1,0)	
L1D -96>	(-52,7)	(-4,15)	(132,86)	(20,85)	(158,1)	(92,11)	(100,87)	(-63,89)	(-128,92)	(44,82)	(144,17)	(24,7)	(72,6)	(148,8)	(16,4)	(167,3)	
L1D -95>	(-122,72)	(103,2)	(0,0)	(169,0)	(29,0)	(10,67)	(26,41)	(-108,1)	(4,4)	(286,1)	(32,6)	(75,1)	(167,0)	(1,0)	(1,0)	(1,0)	
L1D -94>	(96,5)	(28,7)	(88,1)	(86,1)	(20,2)	(-32,3)	(-106,7)	(30,103)	(100,29)	(238,0)	(36,29)	(309,2)	(2,1)	(10,50)	(364,50)	(241,8)	
L1D -93>	(-2,92)	(129,6)	(-4,18)	(95,11)	(-81,11)	(124,5)	(83,27)	(4,22)	(5,58)	(482,1)	(131,1)	(1,3)	(39,14)	(1,0)	(1,0)	(1,0)	
L1D -92>	(58,5)	(20,68)	(38,34)	(94,68)	(-4,71)	(48,1)	(28,24)	(18,24)	(214,36)	(52,3)	(24,13)	(-10,4)	(-26,35)	(-106,6)	(26,3)	(150,6)	
L1D -91>	(93,107)	(175,63)	(83,41)	(85,63)	(1,11)	(-1,3)	(22,6)	(-4,22)	(1,0)	(1,0)	(1,0)	(1,0)	(1,0)	(1,0)	(1,0)	(1,0)	
L1D -90>	(-12,1)	(8,72)	(-34,76)	(82,79)	(20,3)	(194,65)	(146,2)	(-10,1)	(154,58)	(96,3)	(12,6)	(151,2)	(84,4)	(-26,1)	(36,3)	(78,12)	
L1D -89>	(-8,0)	(1,88)	(-1,0)	(-4,3)	(-12,5)	(84,0)	(1,0)	(1,0)	(1,0)	(1,0)	(1,0)	(1,0)	(1,0)	(1,0)	(1,0)	(1,0)	
L1D -88>	(-115,12)	(38,59)	(-48,72)	(28,42)	(92,61)	(96,40)	(114,2)	(2,7)	(32,27)	(30,66)	(-10,47)	(-26,29)	(194,5)	(-2,2)	(-12,20)	(1,5)	
L1D -87>	(2,117)	(-1,88)	(-27,10)	(16,19)	(-85,4)	(1,0)	(115,7)	(113,31)	(-6,3)	(1,0)	(1,0)	(1,0)	(1,0)	(1,0)	(1,0)	(1,0)	
L1D -86>	(144,19)	(28,19)	(-26,6)	(328,48)	(-14,17)	(102,1)	(8,119)	(76,7)	(70,4)	(13,23)	(-44,6)	(-85,6)	(-50,14)	(82,5)	(20,4)	(14,14)	
L1D -85>	(94,66)	(-1,28)	(84,0)	(16,1)	(93,2)	(-23,0)	(91,0)	(102,0)	(172,0)	(12,0)	(-40,0)	(1,0)	(1,0)	(1,0)	(1,0)	(1,0)	
L1D -84>	(-36,32)	(-140,11)	(78,15)	(106,110)	(-114,41)	(82,111)	(-10,17)	(2,37)	(30,97)	(13,74)	(145,1)	(62,2)	(14,59)	(-32,90)	(80,82)	(116,7)	
L1D -83>	(83,61)	(81,111)	(-1,71)	(84,0)	(67,2)	(167,8)	(181,1)	(0,2)	(113,0)	(-10,0)	(1,0)	(1,0)	(1,0)	(1,0)	(1,0)	(1,0)	
L1D -82>	(84,101)	(-100,2)	(2,33)	(186,1)	(1,73)	(-2,6)	(68,1)	(30,2)	(86,34)	(38,2)	(-7,1)	(28,0)	(11,5)	(-8,4)	(78,9)	(162,22)	
L1D -81>	(0,0)	(81,79)	(84,0)	(174,1)	(-7,80)	(1,0)	(1,0)	(1,0)	(1,0)	(1,0)	(1,0)	(1,0)	(1,0)	(1,0)	(1,0)	(1,0)	
L1D -80>	(12,1)	(106,5)	(-10,6)	(138,69)	(8,4)	(-22,84)	(90,12)	(66,10)	(-89,38)	(1,15)	(-42,6)	(0,22)	(82,3)	(-88,3)	(-87,7)	(-44,84)	
L1D -79>	(22,95)	(84,1)	(174,0)	(-34,0)	(1,0)	(1,0)	(1,0)	(1,0)	(1,0)	(1,0)	(1,0)	(1,0)	(1,0)	(1,0)	(1,0)	(1,0)	
L1D -78>	(8,85)	(76,21)	(-14,8)	(110,1)	(22,2)	(-96,5)	(-6,13)	(66,7)	(58,56)	(-50,6)	(-28,2)	(186,4)	(74,32)	(28,38)	(92,18)	(106,5)	
L1D -77>	(13,114)	(-7,0)	(1,0)	(113,88)	(1,0)	(1,0)	(1,0)	(1,0)	(1,0)	(1,0)	(1,0)	(1,0)	(1,0)	(1,0)	(1,0)	(1,0)	
L1D -76>	(-13,61)	(176,70)	(-22,27)	(18,1)	(190,1)	(74,58)	(2,2)	(-72,2)	(-1,7)	(66,36)	(138,3)	(140,1)	(68,2)	(132,67)	(98,66)	(-2,1)	
L1D -75>	(-140,28)	(74,18)	(1,3)	(0,1)	(103,19)	(95,1)	(-1,1)	(1,0)	(1,0)	(1,0)	(1,0)	(1,0)	(1,0)	(1,0)	(1,0)	(1,0)	
L1D -74>	(44,20)	(72,88)	(374,3)	(48,38)	(-6,98)	(314,11)	(70,2)	(42,7)	(80,8)	(36,1)	(81,3)	(6,98)	(38,43)	(2,94)	(-14,16)	(86,1)	
L1D -73>	(67,1)	(65,100)	(2,0)	(-20,30)	(-21,2)	(-1,0)	(1,0)	(1,0)	(1,0)	(1,0)	(1,0)	(1,0)	(1,0)	(1,0)	(1,0)	(1,0)	
L1D -72>	(-7,83)	(48,70)	(-10,1)	(64,4)	(72,80)	(66,115)	(54,2)	(416,18)	(120,25)	(62,13)	(-22,1)	(88,1)	(-8,51)	(-48,3)	(-2,4)	(76,100)	
L1D -71>	(112,0)	(196,0)	(217,0)	(-96,3)	(16,0)	(-67,85)	(119,0)	(-21,10)	(65,0)	(-20,9)	(35,1)	(1,0)	(1,0)	(1,0)	(1,0)	(1,0)	
L1D -70>	(-98,1)	(-70,90)	(118,90)	(152,56)	(-6,87)	(-10,1)	(0,91)	(86,8)	(2,86)	(-22,4)	(70,2)	(64,2)	(68,60)	(-14,1)	(48,85)	(-52,3)	
L1D -69>	(12,96)	(1,3)	(70,5)	(-8,0)	(71,0)	(-7,0)	(95,8)	(-226,0)	(67,0)	(-1,33)	(22,0)	(-116,1)	(35,82)	(-26,45)	(16,4)	(110,0)	
L1D -68>	(11,1)	(-40,28)	(34,8)	(-146,6)	(48,18)	(22,118)	(124,13)	(4,52)	(-2,5)	(84,3)	(112,24)	(0,15)	(118,7)	(-24,21)	(116,6)	(80,19)	
L1D -67>	(-1,0)	(286,102)	(12,43)	(198,0)	(284,0)	(138,0)	(75,1)	(167,1)	(209,1)	(181,1)	(95,0)	(1,0)	(1,0)	(1,0)	(1,0)	(1,0)	
L1D -66>	(12,5)	(8,8)	(-26,69)	(64,4)	(11,9)	(92,5)	(4,1)	(48,3)	(-12,5)	(-18,75)	(-122,2)	(74,3)	(20,24)	(26,83)	(-20,57)	(-148,15)	
L1D -65>	(-32,84)	(-1,123)	(1,0)	(1,0)	(1,0)	(1,0)	(1,0)	(1,0)	(1,0)	(1,0)	(1,0)	(1,0)	(1,0)	(1,0)	(1,0)	(1,0)	
L1D -64>	(-158,29)	(74,53)	(66,7)	(-115,1)	(-54,74)	(-2,12)	(78,18)	(-30,97)	(-150,71)	(-136,96)	(0,42)	(-44,5)	(72,77)	(68,104)	(86,12)	(80,10)	
L1D -63>	(95,74)	(68,0)	(-1,0)	(10,4)	(34,1)	(183,0)	(24,1)	(-32,0)	(131,0)	(1,0)	(1,0)	(1,0)	(1,0)	(1,0)	(1,0)	(1,0)	
L1D -62>	(90,42)	(-32,50)	(-8,7)	(344,5)	(-36,74)	(-40,4)	(-6,4)	(-106,1)	(64,53)	(-150,14)	(126,20)	(217,4)	(18,30)	(-72,43)	(76,13)	(48,104)	
L1D -61>	(-84,11)	(5,0)	(128,113)	(59,0)	(60,0)	(32,0)	(1,0)	(1,0)	(1,0)	(1,0)	(1,0)	(1,0)	(1,0)	(1,0)	(1,0)	(1,0)	
L1D -60>	(58,108)	(48,2)	(-8,77)	(-32,30)	(30,9)	(-92,19)	(18,2)	(44,37)	(72,1)	(-119,6)	(-68,9)	(12,0)	(-4,8)	(76,1)	(-40,0)	(86,1)	
L1D -59>	(196,21)	(142,16)	(281,4)	(1,3)	(279,1)	(-1,4)	(1,0)	(1,0)	(1,0)	(1,0)	(1,0)	(1,0)	(1,0)	(1,0)	(1,0)	(1,0)	
L1D -58>	(48,68)	(74,78)	(-8,15)	(-50,7)	(-32,51)	(72,84)	(66,6)	(78,5)	(32,10)	(68,1)	(96,79)	(62,10)	(52,5)	(-78,25)	(-6,2)	(-42,2)	
L1D -57>	(20,1)	(2,1)	(-20,112)	(-23,30)	(-21,21)	(-5,4)	(0,0)	(1,0)	(1,0)	(1,0)	(1,0)	(1,0)	(1,0)	(1,0)	(1,0)	(1,0)	
L1D -56>	(64,53)	(58,16)	(-6,4)	(66,98)	(-80,23)	(92,9)	(34,13)	(-328,26)	(-40,15)	(-8,17)	(60,28)	(-22,1)	(-56,10)	(-64,3)	(146,50)	(-2,55)	
L1D -55>	(-1,0)	(-3,114)	(1,0)	(1,0)	(1,0)	(1,0)	(1,0)	(1,0)	(1,0)	(1,0)	(1,0)	(1,0)	(1,0)	(1,0)	(1,0)	(1,0)	
L1D -54>	(56,1)	(-24,73)	(-40,1)	(-136,4)	(-36,36)	(142,2)	(-32,10)	(-68,1)	(106,2)	(92,4)	(-12,6)	(140,48)	(-90,6)	(118,5)	(52,9)	(-14,6)	
L1D -53>	(62,12)	(58,73)	(1,0)	(-114,0)	(1,0)	(1,0)	(1,0)	(1,0)	(1,0)	(1,0)	(1,0)	(1,0)	(1,0)	(1,0)	(1,0)	(1,0)	
L1D -52>	(80,109)	(72,43)	(88,1)	(-30,4)	(30,2)	(48,10)	(-56,1)	(-12,4)	(-28,108)	(96,6)	(13,22)	(92,15)	(-96,15)	(0,3)	(-36,5)	(54,15)	
L1D -51>	(70,39)	(-43,20)	(1,2)	(-1,2)	(1,0)	(1,0)	(1,0)	(1,0)	(1,0)	(1,0)	(1,0)	(1,0)	(1,0)	(1,0)	(1,0)	(1,0)	
L1D -50>	(-14,9)	(-96,1)	(186,29)	(-122,16)	(32,4)	(42,6)	(144,46)	(68,3)	(-22,50)	(24,20)	(40,7)	(-34,18)	(92,8)	(82,9)	(13,105)	(-28,37)	
L1D -49>	(1,4)	(-1,104)	(-35,0)	(-246,0)	(-71,0)	(12,32)	(1,0)	(1,0)	(1,0)	(1,0)	(1,0)	(1,0)	(1,0)	(1,0)	(1,0)	(1,0)	
L1D -48>	(10,92)	(144,15)	(-8,94)	(46,98)	(84,4)	(-2,99)	(-67,1)	(102,0)	(-10,1)	(218,0)	(-106,88)	(178,3)	(-40,1)	(-36,1)	(24,75)	(-88,3)	
L1D -47>	(51,21)	(2,59)	(43,1)	(-1,2)	(1,0)	(1,0)	(1,0)	(1,0)	(1,0)	(1,0)	(1,0)	(1,0)	(1,0)	(1,0)	(1,0)	(1,0)	
L1D -46>	(-86,0)	(60,87)	(-12,41)	(-20,0)	(-108,98)	(42,67)	(94,0)	(-150,0)	(-152,1)	(68,18)	(-76,0)	(-26,0)	(36,14)	(74,2)	(-62,0)	(-116,2)	
L1D -45>	(-70,0)	(-2,85)	(48,0)	(118,0)	(1,0)	(1,0)	(1,0)	(1,0)	(1,0)	(1,0)	(1,0)	(1,0)	(1,0)	(1,0)	(1,0)	(1,0)	
L1D -44>	(140,0)	(-116,0)	(48,29)	(42,64)	(84,0)	(-108,0)	(36,0)	(-66,0)	(-158,9)	(68,64)	(34,8)	(58,1)	(-100,3)	(18,8)	(16,2)	(-144,0)	
L1D -43>	(-92,89)	(-106,1)	(44,0)	(-1,2)	(1,0)	(1,0)	(1,0)	(1,0)	(1,0)	(1,0)	(1,0)	(1,0)	(1,0)	(1,0)	(1,0)	(1,0)	
L1D -42>	(-170,89)	(26,92)	(0,1)	(-174,6)	(24,4)	(40,4)	(-4,5)	(-24,6)	(-26,8)	(48,61)	(114,10)	(-96,11)	(134,37)	(22,3)	(54,17)	(140,2)	
L1D -41>	(4,22)	(5,42)	(-1,3)	(39,1)	(1,0)	(1,0)	(1,0)	(1,0)	(1,0)	(1,0)	(1,0)	(1,0)	(1,0)	(1,0)	(1,0)	(1,0)	
L1D -40>	(17,83)	(-152,115)	(114,115)	(-98,40)	(-18,19)	(-60,91)	(-16,25)	(-100,58)	(42,46)	(178,93)	(-26,72)	(54,22)	(26,74)	(-46,9)	(-176,32)	(-87,1)	
L1D -39>	(113,60)	(-12,32)	(-20,127)	(40,0)	(-1,3)	(1,0)	(1,0)	(1,0)	(1,0)	(1,0)	(1,0)	(1,0)	(1,0)	(1,0)	(1,0)	(1,0)	
L1D -38>	(-66,7)	(-62,41)	(36,1)	(33,116)	(24,3)	(-39,1)	(-2,1)	(76,3)	(-30,17)	(178,1)	(-8,11)	(-58,1)	(94,1)	(-94,64)	(40,2)	(74,9)	
L1D -37>	(1,97)	(48,0)	(-21,3)	(-20,26)	(-1,0)	(2,0)	(1,0)	(1,0)	(1,0)	(1,0)	(1,0)	(1,0)	(1,0)	(1,0)	(1,0)	(1,0)	
L1D -36>	(182,72)	(-72,44)	(154,1)	(-36,2)	(38,5)	(-114,1)	(-67,1)	(-80,2)	(-78,2)	(4,14)	(-164,0)	(-10,3)	(32,2)	(86,1)	(26,1)	(114,3)	
L1D -35>	(-26,0)	(-61,0)	(-45,68)	(5,6)	(1,0)	(-10,0)	(181,0)	(-151,0)	(-145,0)	(-36,0)	(1,0)	(1,0)	(1,0)	(1,0)	(1,0)	(1,0)	
L1D -34>	(-4,3)	(154,69)	(84,77)	(-6,9)	(-10,2)	(10,1)	(42,4)	(-2,1)	(-8,24)	(82,1)	(24,6)	(338,4)	(-270,1)	(94,0)	(70,0)	(63,1)	
L1D -33>	(-1,1)	(-37,1)	(1,0)	(1,0)	(1,0)	(1,0)	(1,0)	(1,0)	(1,0)	(1,0)	(1,0)	(1,0)	(1,0)	(1,0)	(1,0)	(1,0)	
L1D -32>	(-270,1)	(36,59)	(58,71)	(92,18)	(-8,16)	(6,1)	(-4,30)	(154,3)	(28,37)	(132,5)	(4,12)	(-106,0)	(-54,2)	(-348,4)	(12,10)	(42,15)	
L1D -31>	(-6,40)	(-53,6)	(29,1)	(1,0)	(1,0)	(1,0)	(1,0)	(1,0)	(1,0)	(1,0)	(1,0)	(1,0)	(1,0)	(1,0)	(1,0)	(1,0)	
L1D -30>	(0,11)	(12,1)	(54,1)	(10,1)	(118,76)	(254,19)	(42,13)	(40,1)	(24,72)	(23,4)	(134,30)	(-14,4)	(86,2)	(112,2)	(-24,1)	(108,1)	
L1D -29>	(-116,1)	(31,3)	(2,1)	(33,1)	(26,0)	(-34,2)	(28,1)	(44,0)	(-154,127)	(74,0)	(-156,0)	(1,0)	(34,8)	(-1,0)	(75,1)	(46,1)	
L1D -28>	(94,1)	(-4,1)	(0,1)	(9,1)	(20,0)	(-62,1)	(38,71)	(96,14)	(254,1)	(-106,6)	(30,87)	(-16,75)	(42,0)	(54,2)	(22,2)	(-96,10)	
L1D -27>	(97,72)	(-92,0)	(-1,5)	(114,0)	(1,0)	(1,0)	(1,0)	(1,0)	(1,0)	(1,0)	(1,0)	(1,0)	(1,0)	(1,0)	(1,0)	(1,0)	
L1D -26>	(-96,31)	(-148,23)	(206,8)	(58,0)	(70,65)	(42,1)	(6,20)	(-37,33)	(34,0)	(210,2)	(-14,7)	(78,10)	(0,6)	(86,1)	(102,4)	(167,32)	
L1D -25>	(-1,0)	(8,11)	(13,65)	(-52,9)	(9,25)	(95,0)	(4,2)	(18,0)	(32,5)	(21,0)	(1,0)	(1,0)	(1,0)	(1,0)	(1,0)	(1,0)	
L1D -24>	(-52,97)	(9,79)	(52,1)	(-2,81)	(96,25)	(-39,8)	(3,60)	(10,9)	(27,21)	(-28,14)	(25,54)	(12,62)	(284,9)	(18,5)	(22,17)	(92,74)	
L1D -23>	(18,86)	(20,8)	(3,27)	(12,0)	(-17,0)	(13,1)	(-5,0)	(14,0)	(1,0)	(1,0)	(1,0)	(1,0)	(1,0)	(1,0)	(1,0)	(1,0)	
L1D -22>	(32,117)	(-12,1)	(96,50)	(28,120)	(38,96)	(-8,18)	(-14,15)	(-110,2)	(-182,0)	(98,2)	(46,0)	(84,27)	(12,11)	(86,19)	(-64,9)	(80,0)	
L1D -21>	(13,40)	(8,57)	(-4,103)	(18,15)	(7,0)	(6,0)	(-3,1)	(20,5)	(19,0)	(24,0)	(1,0)	(1,0)	(1,0)	(1,0)	(1,0)	(1,0)	
L1D -20>	(-4,64)	(-1,16)	(22,31)	(88,1)	(-58,0)	(17,33)	(-16,1)	(19,21)	(10,4)	(-286,0)	(28,12)	(42,0)	(4,3)	(-74,10)	(-122,9)	(92,1)	
L1D -19>	(-9,52)	(152,27)	(6,54)	(10,37)	(20,67)	(-4,118)	(17,0)	(13,6)	(-1,5)	(12,0)	(18,4)	(8,0)	(15,3)	(1,0)	(1,0)	(1,0)	
L1D -18>	(56,2)	(-48,88)	(84,58)	(-90,80)	(-122,33)	(-92,104)	(60,72)	(96,1)	(78,29)	(76,2)	(66,8)	(-11,94)	(134,104)	(-70,97)	(15,51)	(48,11)	
L1D -17>	(-124,121)	(158,80)	(-29,37)	(-1,2)	(48,19)	(3,2)	(12,21)	(-3,16)	(-12,4)	(-8,1)	(9,2)	(18,1)	(1,0)	(1,0)	(1,0)	(1,0)	
L1D -16>	(-99,84)	(54,34)	(114,17)	(28,48)	(-90,112)	(6,35)	(35,116)	(14,24)	(-8,114)	(-44,46)	(64,111)	(30,105)	(100,9)	(-62,1)	(98,11)	(10,15)	
L1D -15>	(67,10)	(87,85)	(5,1)	(145,10)	(99,9)	(95,8)	(119,8)	(3,108)	(18,74)	(8,43)	(14,62)	(115,22)	(17,15)	(6,65)	(-1,38)	(-5,11)	
L1D -14>	(328,1)	(-92,13)	(12,127)	(28,45)	(9,13)	(-96,5)	(1,29)	(-5,6)	(13,23)	(100,58)	(-6,50)	(118,125)	(42,14)	(78,46)	(3,116)	(-62,26)	
L1D -13>	(12,76)	(-12,21)	(-1,0)	(-10,4)	(-8,2)	(8,0)	(-6,0)	(1,0)	(1,0)	(1,0)	(1,0)	(1,0)	(1,0)	(1,0)	(1,0)	(1,0)	
L1D -12>	(-7,15)	(88,45)	(92,27)	(100,10)	(-62,38)	(-46,55)	(8,109)	(-8,29)	(-52,19)	(-22,57)	(-14,13)	(3,100)	(-3,57)	(10,1)	(6,35)	(-30,19)	
L1D -11>	(12,76)	(-7,11)	(10,2)	(19,5)	(17,77)	(8,119)	(9,3)	(6,4)	(3,30)	(83,1)	(-4,37)	(-8,22)	(73,2)	(89,3)	(75,1)	(5,11)	
L1D -10>	(-5,1)	(3,58)	(140,46)	(12,10)	(98,12)	(-54,6)	(1,41)	(-74,5)	(82,6)	(-6,70)	(22,22)	(-42,5)	(-10,17)	(84,19)	(-146,23)	(13,11)	
L1D -9>	(4,63)	(8,10)	(-7,108)	(-8,1)	(-1,35)	(12,28)	(-11,48)	(15,40)	(18,54)	(3,30)	(-14,9)	(-16,9)	(17,4)	(10,2)	(151,3)	(13,3)	
L1D -8>	(-12,70)	(-4,13)	(-102,39)	(-32,52)	(-2,4)	(-92,65)	(-60,55)	(-121,52)	(12,5)	(10,4)	(82,15)	(-70,48)	(-54,1)	(185,39)	(-64,49)	(74,11)	
L1D -7>	(15,27)	(22,36)	(7,82)	(87,0)	(6,15)	(-85,15)	(13,0)	(10,9)	(-8,1)	(9,0)	(181,16)	(-4,11)	(-6,0)	(-9,0)	(-2,1)	(1,0)	
L1D -6>	(36,32)	(-2,17)	(2,125)	(72,18)	(-94,83)	(-86,92)	(-130,91)	(70,96)	(185,85)	(15,86)	(-100,105)	(4,34)	(-58,96)	(80,91)	(-14,1)	(66,96)	
L1D -5>	(8,38)	(138,122)	(-23,4)	(-2,2)	(12,1)	(-12,92)	(2,90)	(-19,82)	(142,27)	(-18,1)	(-11,92)	(-10,10)	(145,43)	(78,20)	(17,3)	(6,5)	
L1D -4>	(3,94)	(13,30)	(9,81)	(-21,20)	(-4,34)	(-70,1)	(11,7)	(1,16)	(174,58)	(12,33)	(-26,33)	(-76,45)	(18,23)	(114,34)	(22,30)	(27,23)	
L1D -3>	(-342,2)	(4,67)	(1,30)	(0,10)	(175,4)	(-7,13)	(136,10)	(-153,10)	(-4,7)	(-170,9)	(172,6)	(81,1)	(347,1)	(-21,1)	(83,0)	(174,5)	
L1D -2>	(-2,34)	(-171,47)	(-170,70)	(-1,59)	(1,15)	(2,52)	(345,1)	(-342,15)	(4,40)	(-72,33)	(13,13)	(-64,37)	(3,63)	(8,17)	(-100,54)	(18,48)	
L1D -1>	(174,14)	(4,46)	(-1,98)	(345,9)	(2,13)	(172,21)	(169,9)	(82,5)	(173,58)	(-171,50)	(-172,7)	(171,13)	(3,11)	(-170,20)	(13,13)	(-343,1)	
L1D 0>	(81,4)	(-7,9)	(-172,1)	(0,72)	(124,1)	(70,0)	(2,1)	(-5,2)	(-3,1)	(195,1)	(7,2)	(38,0)	(122,2)	(-1,13)	(-195,2)	(-48,2)	
L1D 1>	(8,1)	(-12,1)	(-24,1)	(170,2)	(-3,2)	(0,3)	(-2,6)	(168,1)	(343,1)	(172,4)	(1,102)	(-7,0)	(2,2)	(171,1)	(-1,1)	(-172,3)	
L1D 2>	(-3,24)	(171,91)	(344,1)	(1,56)	(8,54)	(-8,44)	(-173,29)	(173,24)	(-1,7)	(-2,52)	(-10,71)	(-21,53)	(-92,47)	(-102,48)	(-172,120)	(-174,13)	
L1D 3>	(6,96)	(-2,36)	(10,28)	(-174,16)	(-347,29)	(-1,99)	(169,1)	(9,68)	(24,17)	(1,97)	(171,115)	(15,23)	(-173,53)	(170,56)	(-9,23)	(-14,16)	
L1D 4>	(8,5)	(-174,79)	(36,2)	(-11,2)	(-346,35)	(-1,44)	(171,15)	(168,77)	(170,33)	(-172,3)	(10,19)	(-2,9)	(-3,22)	(96,1)	(343,2)	(-176,73)	
L1D 5>	(-4,3)	(-3,33)	(1,77)	(-44,1)	(-62,23)	(13,0)	(-1,17)	(-7,63)	(-172,4)	(2,95)	(-9,3)	(140,0)	(18,11)	(9,2)	(172,1)	(3,1)	
L1D 6>	(18,102)	(-10,126)	(47,1)	(-24,56)	(94,57)	(-15,6)	(108,8)	(-88,8)	(40,53)	(17,23)	(-8,8)	(67,4)	(-1,25)	(10,31)	(64,46)	(12,9)	
L1D 7>	(0,79)	(12,0)	(-7,15)	(172,0)	(-66,0)	(-109,0)	(-172,0)	(-99,15)	(63,0)	(1,0)	(1,0)	(1,0)	(1,0)	(1,0)	(1,0)	(1,0)	
L1D 8>	(-19,66)	(10,5)	(9,10)	(67,1)	(69,22)	(64,14)	(-3,25)	(-26,19)	(47,18)	(58,20)	(-10,40)	(-18,22)	(-80,30)	(-28,24)	(-6,29)	(12,32)	
L1D 9>	(1,24)	(-11,48)	(13,71)	(18,87)	(-3,13)	(-6,3)	(9,46)	(-1,6)	(83,18)	(44,2)	(75,5)	(12,18)	(62,1)	(-18,18)	(-7,20)	(21,4)	
L1D 10>	(-19,14)	(-12,53)	(-2,18)	(54,1)	(-90,59)	(88,21)	(2,3)	(28,75)	(80,9)	(78,29)	(48,11)	(-4,69)	(-14,92)	(-64,11)	(-84,55)	(6,62)	
L1D 11>	(-20,48)	(-3,31)	(-43,0)	(6,90)	(10,12)	(-9,6)	(-1,18)	(-2,0)	(19,9)	(-5,0)	(1,0)	(1,0)	(1,0)	(1,0)	(1,0)	(1,0)	
L1D 12>	(-20,125)	(90,14)	(-2,43)	(-18,1)	(-24,35)	(-42,8)	(8,18)	(28,24)	(-19,29)	(-11,21)	(66,22)	(48,16)	(80,8)	(-3,14)	(-78,21)	(-50,3)	
L1D 13>	(-20,93)	(8,22)	(-7,0)	(-5,21)	(-1,3)	(-12,25)	(12,2)	(-19,1)	(-11,2)	(-15,1)	(-10,1)	(-17,0)	(1,0)	(1,0)	(1,0)	(1,0)	
L1D 14>	(-102,1)	(66,15)	(-40,2)	(14,108)	(34,63)	(-42,6)	(48,12)	(-302,14)	(40,4)	(-110,81)	(-364,24)	(-86,12)	(12,5)	(-78,11)	(-22,6)	(28,53)	
L1D 15>	(69,20)	(75,42)	(0,120)	(-16,1)	(-3,41)	(47,30)	(81,34)	(65,58)	(67,34)	(83,37)	(3,2)	(-10,10)	(-7,54)	(-1,2)	(39,2)	(12,3)	
L1D 16>	(-108,83)	(-86,7)	(-96,79)	(12,2)	(184,1)	(-114,58)	(-80,23)	(48,1)	(-40,72)	(98,25)	(-42,3)	(-134,7)	(-8,12)	(16,80)	(54,81)	(344,22)	
L1D 17>	(31,59)	(-9,1)	(70,58)	(-16,76)	(-11,5)	(-18,0)	(-15,8)	(2,0)	(-3,1)	(126,41)	(145,31)	(138,41)	(-10,22)	(142,43)	(78,39)	(141,2)	
L1D 18>	(78,12)	(-9,103)	(126,18)	(-11,15)	(12,17)	(-6,42)	(-12,40)	(344,14)	(2,72)	(-2,36)	(30,1)	(-19,24)	(142,9)	(138,13)	(-7,8)	(-16,10)	
L1D 19>	(8,1)	(-2,117)	(-21,67)	(-11,1)	(-4,1)	(70,17)	(-13,85)	(-1,3)	(-23,5)	(-20,1)	(-9,1)	(1,0)	(1,0)	(1,0)	(1,0)	(1,0)	
L1D 20>	(-13,8)	(48,4)	(-22,53)	(-6,2)	(-68,1)	(138,49)	(-12,17)	(74,107)	(-78,3)	(-24,70)	(-21,11)	(-62,2)	(64,19)	(-44,52)	(-2,9)	(-92,10)	
L1D 21>	(-1,77)	(1,1)	(-13,50)	(-23,5)	(-15,3)	(-19,4)	(70,15)	(-6,0)	(84,3)	(-25,4)	(-14,3)	(-8,0)	(-24,1)	(3,0)	(1,0)	(1,0)	
L1D 22>	(-23,30)	(70,1)	(66,21)	(162,2)	(-5,115)	(10,30)	(-14,4)	(-16,29)	(8,34)	(169,1)	(-3,5)	(48,2)	(-8,31)	(51,31)	(-11,2)	(-110,31)	
L1D 23>	(19,75)	(-77,2)	(70,9)	(-5,0)	(-25,0)	(-9,1)	(-259,0)	(1,0)	(1,0)	(1,0)	(1,0)	(1,0)	(1,0)	(1,0)	(1,0)	(1,0)	
L1D 24>	(62,3)	(84,21)	(-120,67)	(-6,1)	(68,4)	(70,67)	(3,2)	(-9,29)	(6,59)	(-52,26)	(-15,2)	(-2,1)	(-12,16)	(20,1)	(-16,5)	(-26,2)	
L1D 25>	(-1,0)	(-192,0)	(-77,109)	(-64,0)	(70,0)	(102,0)	(-134,0)	(80,0)	(1,0)	(1,0)	(1,0)	(1,0)	(1,0)	(1,0)	(1,0)	(1,0)	
L1D 26>	(42,8)	(222,6)	(146,12)	(-182,1)	(86,2)	(-40,4)	(-2,85)	(-120,13)	(-26,82)	(31,88)	(20,5)	(70,48)	(-38,73)	(-96,82)	(-118,4)	(-124,56)	
L1D 27>	(-14,0)	(70,0)	(-1,0)	(88,0)	(-2,0)	(-9,85)	(-25,0)	(-10,13)	(-5,20)	(-16,19)	(3,1)	(-6,0)	(1,0)	(1,0)	(1,0)	(1,0)	
L1D 28>	(-74,65)	(56,69)	(76,13)	(-42,69)	(82,67)	(68,66)	(66,68)	(-26,1)	(-12,10)	(-16,6)	(-24,40)	(64,11)	(-68,16)	(268,10)	(-18,109)	(-124,27)	
L1D 29>	(-36,8)	(-12,0)	(-63,12)	(87,5)	(115,101)	(-92,0)	(-145,0)	(-1,38)	(1,0)	(1,0)	(1,0)	(1,0)	(1,0)	(1,0)	(1,0)	(1,0)	
L1D 30>	(-120,34)	(-34,9)	(66,113)	(42,26)	(74,125)	(-19,49)	(-40,87)	(62,1)	(12,24)	(36,39)	(354,3)	(-30,24)	(-18,85)	(-8,88)	(-28,100)	(72,106)	
L1D 31>	(-84,34)	(-29,0)	(-1,0)	(-185,1)	(-191,0)	(-224,61)	(-149,93)	(44,2)	(-48,1)	(1,0)	(1,0)	(1,0)	(1,0)	(1,0)	(1,0)	(1,0)	
L1D 32>	(8,121)	(-116,14)	(-34,7)	(-68,2)	(-102,5)	(-48,16)	(-20,12)	(-40,38)	(-156,2)	(36,7)	(-10,1)	(100,5)	(-4,6)	(18,18)	(20,18)	(-16,4)	
L1D 33>	(-1,0)	(-2,88)	(41,0)	(31,0)	(1,0)	(1,0)	(1,0)	(1,0)	(1,0)	(1,0)	(1,0)	(1,0)	(1,0)	(1,0)	(1,0)	(1,0)	
L1D 34>	(41,8)	(58,2)	(38,88)	(74,1)	(-58,0)	(-146,14)	(-182,98)	(78,4)	(42,16)	(44,3)	(-40,1)	(-208,1)	(-10,7)	(33,18)	(-2,4)	(-74,5)	
L1D 35>	(-45,0)	(67,0)	(-71,0)	(-1,0)	(-7,0)	(-61,70)	(-151,3)	(5,1)	(-145,0)	(1,0)	(1,0)	(1,0)	(1,0)	(1,0)	(1,0)	(1,0)	
L1D 36>	(-38,13)	(2,19)	(66,2)	(-100,2)	(-212,57)	(-4,2)	(50,5)	(10,6)	(284,3)	(-40,29)	(-104,67)	(-77,39)	(38,18)	(-92,14)	(48,1)	(182,1)	
L1D 37>	(11,8)	(-42,2)	(-1,1)	(1,0)	(1,0)	(1,0)	(1,0)	(1,0)	(1,0)	(1,0)	(1,0)	(1,0)	(1,0)	(1,0)	(1,0)	(1,0)	
L1D 38>	(-80,1)	(-14,4)	(-78,2)	(16,68)	(48,115)	(-4,4)	(-136,3)	(-64,2)	(64,69)	(-20,41)	(-2,27)	(46,42)	(-100,8)	(-115,12)	(-8,25)	(-18,5)	
L1D 39>	(-140,65)	(-150,2)	(-42,0)	(18,0)	(-1,0)	(1,0)	(1,0)	(1,0)	(1,0)	(1,0)	(1,0)	(1,0)	(1,0)	(1,0)	(1,0)	(1,0)	
L1D 40>	(8,0)	(-12,1)	(-108,2)	(32,1)	(170,2)	(-10,0)	(48,6)	(-42,2)	(28,27)	(92,1)	(-48,68)	(-66,13)	(-50,3)	(-84,50)	(-2,2)	(2,27)	
L1D 41>	(-1,13)	(96,77)	(-106,0)	(-42,0)	(1,0)	(1,0)	(1,0)	(1,0)	(1,0)	(1,0)	(1,0)	(1,0)	(1,0)	(1,0)	(1,0)	(1,0)	
L1D 42>	(8,15)	(-12,42)	(-16,26)	(58,117)	(-24,49)	(194,16)	(-42,18)	(-8,124)	(-96,37)	(-84,81)	(-54,22)	(76,14)	(-48,27)	(40,20)	(92,13)	(74,1)	
L1D 43>	(-2,1)	(-42,5)	(2,2)	(0,1)	(1,1)	(1,0)	(1,0)	(1,0)	(1,0)	(1,0)	(1,0)	(1,0)	(1,0)	(1,0)	(1,0)	(1,0)	
L1D 44>	(14,2)	(-16,1)	(-14,2)	(66,69)	(104,2)	(-10,5)	(-194,1)	(-49,2)	(-62,25)	(96,1)	(164,5)	(-202,1)	(28,11)	(-2,1)	(-50,2)	(-6,2)	
L1D 45>	(-1,4)	(1,1)	(96,28)	(2,1)	(-42,3)	(-43,1)	(3,1)	(1,0)	(1,0)	(1,0)	(1,0)	(1,0)	(1,0)	(1,0)	(1,0)	(1,0)	
L1D 46>	(-134,0)	(-12,0)	(81,93)	(-86,0)	(-48,0)	(48,0)	(-152,0)	(2,0)	(28,1)	(-28,0)	(-52,0)	(14,0)	(-108,57)	(-44,0)	(-200,0)	(186,0)	
L1D 47>	(-49,86)	(-57,1)	(78,1)	(-1,0)	(-77,0)	(-50,108)	(-37,111)	(-48,25)	(1,0)	(1,0)	(1,0)	(1,0)	(1,0)	(1,0)	(1,0)	(1,0)	
L1D 48>	(12,90)	(-58,85)	(-44,1)	(-86,25)	(-120,97)	(22,76)	(-66,74)	(-2,92)	(-88,70)	(-70,3)	(-136,30)	(96,6)	(-16,65)	(28,58)	(-144,60)	(-36,44)	
L1D 49>	(-81,80)	(-5,3)	(99,6)	(-299,4)	(-1,117)	(1,0)	(1,0)	(1,0)	(1,0)	(1,0)	(1,0)	(1,0)	(1,0)	(1,0)	(1,0)	(1,0)	
L1D 50>	(-78,31)	(2,7)	(-2,86)	(-64,5)	(-32,2)	(-145,2)	(26,1)	(-56,1)	(-40,32)	(-124,1)	(-48,1)	(-18,11)	(-118,11)	(34,7)	(-182,3)	(94,91)	
L1D 51>	(-81,65)	(-1,0)	(7,0)	(93,0)	(-94,0)	(-149,0)	(1,0)	(1,0)	(1,0)	(1,0)	(1,0)	(1,0)	(1,0)	(1,0)	(1,0)	(1,0)	
L1D 52>	(-4,117)	(-44,61)	(-2,4)	(-106,3)	(-26,23)	(-62,10)	(-52,13)	(-76,21)	(-150,13)	(-58,7)	(-88,78)	(-82,20)	(-10,102)	(88,1)	(-148,9)	(-50,7)	
L1D 53>	(-49,1)	(-52,1)	(-1,2)	(1,0)	(1,0)	(1,0)	(1,0)	(1,0)	(1,0)	(1,0)	(1,0)	(1,0)	(1,0)	(1,0)	(1,0)	(1,0)	
L1D 54>	(14,1)	(8,29)	(-76,1)	(10,113)	(-20,2)	(-35,127)	(-90,1)	(-78,1)	(-196,1)	(-4,1)	(-108,1)	(-140,48)	(-52,19)	(-6,40)	(52,3)	(42,24)	
L1D 55>	(-49,14)	(-71,14)	(1,0)	(1,0)	(1,0)	(1,0)	(1,0)	(1,0)	(1,0)	(1,0)	(1,0)	(1,0)	(1,0)	(1,0)	(1,0)	(1,0)	
L1D 56>	(-50,1)	(10,69)	(-98,2)	(-162,126)	(-92,37)	(36,62)	(-58,5)	(-76,1)	(2,1)	(-146,1)	(-22,3)	(-124,25)	(-186,2)	(-88,1)	(38,1)	(-54,1)	
L1D 57>	(-43,102)	(141,21)	(1,1)	(7,1)	(0,1)	(1,0)	(1,0)	(1,0)	(1,0)	(1,0)	(1,0)	(1,0)	(1,0)	(1,0)	(1,0)	(1,0)	
L1D 58>	(-14,7)	(36,2)	(-64,122)	(-158,1)	(-12,105)	(10,23)	(-60,60)	(48,6)	(-62,46)	(-68,26)	(12,19)	(-32,17)	(2,6)	(-138,2)	(136,82)	(34,89)	
L1D 59>	(141,90)	(-1,5)	(129,1)	(1,0)	(1,0)	(1,0)	(1,0)	(1,0)	(1,0)	(1,0)	(1,0)	(1,0)	(1,0)	(1,0)	(1,0)	(1,0)	
L1D 60>	(4,93)	(-48,67)	(-78,82)	(2,0)	(-66,7)	(-2,3)	(-76,0)	(10,0)	(-92,1)	(26,62)	(312,2)	(-64,3)	(-6,1)	(-16,0)	(-179,1)	(-70,3)	
L1D 61>	(-43,78)	(-145,21)	(-29,13)	(-1,4)	(1,0)	(1,0)	(1,0)	(1,0)	(1,0)	(1,0)	(1,0)	(1,0)	(1,0)	(1,0)	(1,0)	(1,0)	
L1D 62>	(-36,33)	(16,23)	(-74,5)	(-66,62)	(-114,18)	(-4,3)	(-2,13)	(-98,108)	(40,9)	(-34,6)	(-67,1)	(-181,62)	(-70,48)	(-64,10)	(48,74)	(-10,12)	
L1D 63>	(-39,2)	(5,15)	(-63,16)	(2,0)	(9,0)	(-53,115)	(7,0)	(-57,0)	(-1,0)	(1,0)	(1,0)	(1,0)	(1,0)	(1,0)	(1,0)	(1,0)	
L1D 64>	(-69,1)	(8,108)	(-16,1)	(-94,47)	(-6,111)	(-2,16)	(-84,9)	(-74,108)	(-92,18)	(6,29)	(-179,7)	(-70,77)	(-88,16)	(-46,44)	(-66,11)	(-118,3)	
L1D 65>	(-67,40)	(-97,0)	(28,105)	(1,0)	(25,0)	(2,0)	(-55,48)	(-1,0)	(-66,13)	(1,0)	(1,0)	(1,0)	(1,0)	(1,0)	(1,0)	(1,0)	
L1D 66>	(-108,28)	(-54,21)	(-88,1)	(-72,1)	(-40,32)	(-74,5)	(-92,68)	(-202,1)	(-104,34)	(-6,35)	(2,28)	(12,27)	(-96,2)	(-8,3)	(-82,30)	(-90,6)	
L1D 67>	(20,0)	(-186,0)	(6,0)	(-69,17)	(114,13)	(-2,2)	(-196,0)	(-57,81)	(0,0)	(2,0)	(-68,6)	(100,1)	(-1,8)	(-128,0)	(8,0)	(1,0)	
L1D 68>	(38,1)	(2,4)	(-76,114)	(-92,5)	(-20,7)	(162,8)	(-42,10)	(-58,111)	(106,8)	(22,4)	(72,115)	(66,12)	(-62,2)	(-64,2)	(-54,12)	(10,76)	
L1D 69>	(-72,115)	(-295,0)	(2,0)	(1,0)	(-47,0)	(-57,32)	(-1,0)	(-79,16)	(1,0)	(1,0)	(1,0)	(1,0)	(1,0)	(1,0)	(1,0)	(1,0)	
L1D 70>	(2,115)	(-35,11)	(-92,127)	(-80,1)	(8,18)	(-70,115)	(-98,7)	(16,74)	(-122,38)	(-88,6)	(-95,79)	(-180,60)	(-69,33)	(-96,12)	(124,90)	(6,15)	
L1D 71>	(-38,68)	(-1,85)	(48,0)	(-167,5)	(1,0)	(1,0)	(1,0)	(1,0)	(1,0)	(1,0)	(1,0)	(1,0)	(1,0)	(1,0)	(1,0)	(1,0)	
L1D 72>	(-86,54)	(-92,96)	(286,57)	(-100,76)	(-72,110)	(48,77)	(-159,76)	(-68,9)	(-38,65)	(-34,13)	(-8,11)	(-42,65)	(-144,1)	(-70,7)	(0,10)	(-122,11)	
L1D 73>	(1,74)	(-8,1)	(-67,64)	(-69,4)	(-66,1)	(-1,1)	(1,0)	(1,0)	(1,0)	(1,0)	(1,0)	(1,0)	(1,0)	(1,0)	(1,0)	(1,0)	
L1D 74>	(-4,19)	(-58,33)	(-18,84)	(8,82)	(-72,54)	(-8,29)	(7,81)	(1,85)	(-80,1)	(2,31)	(-82,20)	(18,30)	(-64,77)	(28,6)	(-84,4)	(4,4)	
L1D 75>	(60,122)	(-1,0)	(96,112)	(-72,1)	(-215,5)	(-69,3)	(28,4)	(-8,1)	(106,1)	(174,1)	(1,0)	(1,0)	(1,0)	(1,0)	(1,0)	(1,0)	
L1D 76>	(-66,73)	(-8,30)	(-115,1)	(-190,1)	(38,2)	(-6,73)	(-148,8)	(-14,1)	(36,4)	(16,23)	(-102,2)	(50,1)	(30,0)	(-58,16)	(-210,0)	(-78,1)	
L1D 77>	(-49,16)	(-69,74)	(1,15)	(2,34)	(-48,17)	(-295,6)	(-126,5)	(-72,14)	(-1,2)	(1,0)	(1,0)	(1,0)	(1,0)	(1,0)	(1,0)	(1,0)	
L1D 78>	(-76,65)	(-2,3)	(56,1)	(-80,3)	(284,3)	(-158,9)	(2,18)	(-212,50)	(-12,4)	(-4,2)	(26,47)	(-52,37)	(-60,1)	(-10,5)	(-90,55)	(-82,8)	
L1D 79>	(-1,111)	(1,0)	(1,0)	(1,0)	(1,0)	(1,0)	(1,0)	(1,0)	(1,0)	(1,0)	(1,0)	(1,0)	(1,0)	(1,0)	(1,0)	(1,0)	
L1D 80>	(-2,48)	(-70,67)	(-6,69)	(16,62)	(-4,67)	(8,5)	(-46,11)	(-92,7)	(2,44)	(-50,0)	(-84,27)	(-116,2)	(-74,27)	(-78,13)	(-88,8)	(-64,3)	
L1D 81>	(-82,88)	(-81,16)	(2,4)	(-84,8)	(-71,3)	(0,1)	(60,0)	(-99,0)	(-80,0)	(1,0)	(1,0)	(1,0)	(1,0)	(1,0)	(1,0)	(1,0)	
L1D 82>	(-82,93)	(16,93)	(-84,14)	(8,93)	(2,1)	(-80,37)	(-16,90)	(24,11)	(-158,7)	(63,47)	(-40,58)	(98,1)	(-216,4)	(28,8)	(-4,10)	(-152,7)	
L1D 83>	(-83,95)	(-85,41)	(-82,0)	(-1,0)	(-73,30)	(-86,23)	(-16,1)	(60,2)	(1,0)	(1,0)	(1,0)	(1,0)	(1,0)	(1,0)	(1,0)	(1,0)	
L1D 84>	(-83,98)	(-48,31)	(-115,5)	(-82,1)	(-102,38)	(-8,1)	(-62,27)	(-92,14)	(-46,33)	(-167,1)	(10,9)	(-90,1)	(-6,0)	(-100,3)	(-66,3)	(-154,2)	
L1D 85>	(10,22)	(-2,63)	(17,21)	(-170,40)	(1,1)	(90,3)	(8,19)	(-69,25)	(4,1)	(-1,2)	(1,0)	(1,0)	(1,0)	(1,0)	(1,0)	(1,0)	
L1D 86>	(-18,69)	(8,1)	(22,10)	(-110,1)	(-36,8)	(-115,1)	(-100,5)	(-182,1)	(-64,81)	(-201,1)	(-140,6)	(-114,6)	(-66,3)	(-98,2)	(-38,1)	(-78,10)	
L1D 87>	(-106,127)	(-1,0)	(2,3)	(8,0)	(-20,0)	(32,0)	(-88,0)	(-82,0)	(1,0)	(1,0)	(1,0)	(1,0)	(1,0)	(1,0)	(1,0)	(1,0)	
L1D 88>	(-74,112)	(-58,38)	(-212,2)	(-115,4)	(4,8)	(-50,1)	(-52,7)	(-40,1)	(-72,1)	(-10,2)	(-114,3)	(-86,3)	(-56,1)	(-60,5)	(8,5)	(10,5)	
L1D 89>	(39,63)	(1,2)	(-1,127)	(-82,55)	(-94,1)	(1,0)	(1,0)	(1,0)	(1,0)	(1,0)	(1,0)	(1,0)	(1,0)	(1,0)	(1,0)	(1,0)	
L1D 90>	(-94,1)	(-196,5)	(-30,26)	(-8,90)	(4,118)	(10,9)	(280,4)	(95,2)	(118,6)	(-84,5)	(56,55)	(224,63)	(-96,1)	(-6,4)	(-12,35)	(-54,2)	
L1D 91>	(2,105)	(-1,2)	(3,6)	(1,0)	(1,0)	(1,0)	(1,0)	(1,0)	(1,0)	(1,0)	(1,0)	(1,0)	(1,0)	(1,0)	(1,0)	(1,0)	
L1D 92>	(-84,50)	(-114,116)	(-80,115)	(-96,8)	(2,2)	(-182,3)	(-224,78)	(-76,105)	(-134,11)	(66,35)	(-8,19)	(344,23)	(-40,3)	(-16,1)	(-88,20)	(62,4)	
L1D 93>	(-95,52)	(-10,65)	(2,7)	(36,1)	(-212,1)	(-2,0)	(-8,1)	(-92,0)	(-94,1)	(-174,6)	(54,0)	(1,0)	(1,0)	(1,0)	(1,0)	(1,0)	
L1D 94>	(-42,117)	(-14,1)	(-122,2)	(2,116)	(-66,2)	(-92,1)	(-134,8)	(-90,4)	(-74,7)	(-60,2)	(14,116)	(-58,3)	(26,1)	(78,105)	(66,17)	(82,3)	
L1D 95>	(36,1)	(74,0)	(191,112)	(95,1)	(-66,1)	(-124,1)	(72,1)	(88,3)	(2,2)	(-78,0)	(22,7)	(-85,4)	(92,3)	(-99,0)	(1,0)	(1,0)	
L1D 96>	(76,49)	(-40,68)	(110,40)	(66,5)	(-138,57)	(8,1)	(19,5)	(-4,7)	(4,4)	(-72,22)	(-108,50)	(-16,12)	(-8,1)	(-88,6)	(-188,59)	(-6,44)	
L1D 97>	(-16,22)	(-29,93)	(-69,0)	(-94,0)	(-188,0)	(1,0)	(1,0)	(1,0)	(1,0)	(1,0)	(1,0)	(1,0)	(1,0)	(1,0)	(1,0)	(1,0)	
L1D 98>	(-106,0)	(80,92)	(-181,1)	(-10,24)	(2,4)	(78,5)	(-140,2)	(-232,4)	(-82,51)	(-35,0)	(-114,15)	(34,14)	(-86,11)	(94,1)	(16,7)	(-116,0)	
L1D 99>	(-109,80)	(-103,3)	(-100,8)	(-12,8)	(70,11)	(-71,31)	(-192,10)	(-2,3)	(-1,2)	(-94,1)	(1,0)	(1,0)	(1,0)	(1,0)	(1,0)	(1,0)	
L1D 100>	(-60,2)	(-201,1)	(-58,77)	(-88,3)	(-92,30)	(-66,125)	(-90,22)	(8,4)	(-6,4)	(16,19)	(-94,7)	(-132,7)	(48,1)	(-4,60)	(-108,6)	(-8,5)	
L1D 101>	(-103,20)	(31,21)	(100,34)	(12,25)	(14,9)	(42,1)	(1,0)	(1,0)	(1,0)	(1,0)	(1,0)	(1,0)	(1,0)	(1,0)	(1,0)	(1,0)	
L1D 102>	(-116,38)	(-136,6)	(-82,3)	(-74,1)	(-94,83)	(-90,2)	(-110,1)	(92,1)	(-54,5)	(-40,1)	(60,3)	(-84,6)	(38,2)	(-100,2)	(102,6)	(-8,1)	
L1D 103>	(-105,20)	(66,72)	(-36,12)	(1,1)	(-42,1)	(1,0)	(1,0)	(1,0)	(1,0)	(1,0)	(1,0)	(1,0)	(1,0)	(1,0)	(1,0)	(1,0)	
L1D 104>	(-16,5)	(100,9)	(56,46)	(-132,104)	(62,9)	(-108,4)	(12,3)	(-18,3)	(15,12)	(102,1)	(60,15)	(-58,8)	(-174,2)	(-38,5)	(-112,9)	(-8,3)	
L1D 105>	(-109,40)	(-107,22)	(-106,1)	(1,1)	(1,0)	(1,0)	(1,0)	(1,0)	(1,0)	(1,0)	(1,0)	(1,0)	(1,0)	(1,0)	(1,0)	(1,0)	
L1D 106>	(-38,9)	(-132,95)	(8,1)	(120,106)	(-22,2)	(-52,0)	(-92,113)	(-88,3)	(-14,8)	(-36,3)	(32,2)	(-78,11)	(-26,0)	(-48,1)	(-4,1)	(94,1)	
L1D 107>	(-1,2)	(-42,1)	(1,0)	(1,0)	(1,0)	(1,0)	(1,0)	(1,0)	(1,0)	(1,0)	(1,0)	(1,0)	(1,0)	(1,0)	(1,0)	(1,0)	
L1D 108>	(-14,24)	(-114,0)	(-86,37)	(-136,0)	(-64,0)	(-2,0)	(-110,0)	(-144,11)	(-122,5)	(-120,13)	(-98,73)	(84,13)	(-8,5)	(-108,0)	(-232,4)	(-34,2)	
L1D 109>	(-7,42)	(70,20)	(0,1)	(-1,1)	(-42,1)	(1,0)	(1,0)	(1,0)	(1,0)	(1,0)	(1,0)	(1,0)	(1,0)	(1,0)	(1,0)	(1,0)	
L1D 110>	(-102,79)	(-14,0)	(68,6)	(-8,0)	(108,0)	(-16,0)	(-158,1)	(-112,1)	(-114,4)	(48,0)	(-82,2)	(70,5)	(-108,5)	(-40,0)	(-122,4)	(4,3)	
L1D 111>	(-42,4)	(-1,1)	(1,0)	(1,0)	(1,0)	(1,0)	(1,0)	(1,0)	(1,0)	(1,0)	(1,0)	(1,0)	(1,0)	(1,0)	(1,0)	(1,0)	
L1D 112>	(-114,5)	(6,0)	(-86,0)	(-102,0)	(-14,36)	(-36,0)	(-78,3)	(50,0)	(-158,115)	(-44,0)	(-18,7)	(-40,0)	(-124,2)	(96,0)	(-52,0)	(48,2)	
L1D 113>	(28,122)	(-26,1)	(-14,9)	(2,21)	(14,7)	(-42,0)	(-12,48)	(1,0)	(1,0)	(1,0)	(1,0)	(1,0)	(1,0)	(1,0)	(1,0)	(1,0)	
L1D 114>	(-14,8)	(-36,0)	(-70,66)	(-106,6)	(76,4)	(-86,20)	(-212,64)	(-158,2)	(-108,2)	(-90,3)	(-10,6)	(-26,10)	(-80,1)	(-42,1)	(-181,1)	(-142,0)	
L1D 115>	(-14,92)	(1,0)	(-28,7)	(64,17)	(-2,0)	(1,0)	(1,0)	(1,0)	(1,0)	(1,0)	(1,0)	(1,0)	(1,0)	(1,0)	(1,0)	(1,0)	
L1D 116>	(-18,28)	(-34,78)	(44,3)	(-84,7)	(-158,56)	(-36,44)	(-90,18)	(29,21)	(-154,3)	(-64,3)	(-38,5)	(-118,7)	(42,2)	(-6,2)	(-8,11)	(-16,5)	
L1D 117>	(-119,41)	(1,0)	(1,0)	(1,0)	(1,0)	(1,0)	(1,0)	(1,0)	(1,0)	(1,0)	(1,0)	(1,0)	(1,0)	(1,0)	(1,0)	(1,0)	
L1D 118>	(-118,0)	(-158,1)	(18,33)	(22,68)	(56,33)	(-6,0)	(14,7)	(-92,34)	(-8,0)	(-84,3)	(-56,1)	(-120,2)	(-46,0)	(-58,3)	(-112,25)	(-104,1)	
L1D 119>	(39,46)	(-52,61)	(62,40)	(-93,21)	(-27,39)	(-2,86)	(-1,5)	(1,0)	(1,0)	(1,0)	(1,0)	(1,0)	(1,0)	(1,0)	(1,0)	(1,0)	
L1D 120>	(-86,11)	(28,22)	(22,1)	(-24,0)	(66,1)	(-116,0)	(30,0)	(-120,0)	(70,0)	(-88,114)	(296,15)	(64,0)	(-122,9)	(-156,0)	(-130,1)	(88,1)	
L1D 121>	(4,60)	(88,38)	(-274,1)	(-126,1)	(-1,1)	(1,0)	(1,0)	(1,0)	(1,0)	(1,0)	(1,0)	(1,0)	(1,0)	(1,0)	(1,0)	(1,0)	
L1D 122>	(36,0)	(-62,0)	(-74,0)	(-122,118)	(38,0)	(-78,0)	(-4,0)	(-10,0)	(-124,0)	(84,0)	(-110,0)	(-70,0)	(-40,0)	(88,1)	(-218,1)	(1,0)	
L1D 123>	(6,101)	(-1,1)	(1,0)	(1,0)	(1,0)	(1,0)	(1,0)	(1,0)	(1,0)	(1,0)	(1,0)	(1,0)	(1,0)	(1,0)	(1,0)	(1,0)	
L1D 124>	(-122,0)	(-124,6)	(1,0)	(-150,1)	(-126,0)	(-210,0)	(-18,0)	(4,0)	(62,0)	(-92,25)	(-220,105)	(290,0)	(-4,0)	(-142,0)	(-12,0)	(-26,8)	
L1D 125>	(-84,20)	(-197,1)	(1,0)	(1,0)	(1,0)	(1,0)	(1,0)	(1,0)	(1,0)	(1,0)	(1,0)	(1,0)	(1,0)	(1,0)	(1,0)	(1,0)	
L1D 126>	(-124,87)	(-128,0)	(-137,0)	(-94,11)	(-145,0)	(6,1)	(22,0)	(14,1)	(-74,0)	(-152,0)	(-78,9)	(-50,1)	(-28,0)	(1,0)	(1,0)	(1,0)	
L1D 127>	(-280,2)	(-126,3)	(3,1)	(-184,1)	(-1,1)	(1,0)	(1,0)	(1,0)	(1,0)	(1,0)	(1,0)	(1,0)	(1,0)	(1,0)	(1,0)	(1,0)	
[...]
L1D 337>	(-1,2)	(1,0)	(1,0)	(1,0)	(1,0)	(1,0)	(1,0)	(1,0)	(1,0)	(1,0)	(1,0)	(1,0)	(1,0)	(1,0)	(1,0)	(1,0)	
L1D 338>	(-1,1)	(-184,70)	(1,0)	(1,0)	(1,0)	(1,0)	(1,0)	(1,0)	(1,0)	(1,0)	(1,0)	(1,0)	(1,0)	(1,0)	(1,0)	(1,0)	
L1D 339>	(-1,1)	(1,0)	(1,0)	(1,0)	(1,0)	(1,0)	(1,0)	(1,0)	(1,0)	(1,0)	(1,0)	(1,0)	(1,0)	(1,0)	(1,0)	(1,0)	
L1D 340>	(-342,0)	(-315,0)	(-341,79)	(-169,1)	(1,0)	(1,0)	(1,0)	(1,0)	(1,0)	(1,0)	(1,0)	(1,0)	(1,0)	(1,0)	(1,0)	(1,0)	
L1D 341>	(-340,21)	(-172,4)	(4,31)	(2,1)	(-344,97)	(-170,0)	(-168,7)	(3,0)	(-341,1)	(-171,0)	(1,0)	(1,0)	(1,0)	(1,0)	(1,0)	(1,0)	
L1D 342>	(-170,39)	(-172,14)	(4,101)	(-343,48)	(3,32)	(-169,4)	(2,0)	(-344,5)	(-345,24)	(-171,3)	(-341,1)	(-346,37)	(-338,0)	(-337,0)	(-340,0)	(1,0)	
L1D 343>	(-346,18)	(-342,100)	(-343,26)	(-172,94)	(-175,9)	(-169,9)	(-345,4)	(2,6)	(-170,1)	(-2,1)	(4,17)	(-340,4)	(-1,1)	(-171,15)	(3,1)	(-341,2)	
L1D 344>	(-172,44)	(-402,74)	(-343,73)	(-170,31)	(-171,74)	(-173,21)	(-3,7)	(3,10)	(-230,1)	(-341,17)	(-342,58)	(2,30)	(-340,6)	(-345,21)	(4,4)	(-1,32)	
L1D 345>	(0,100)	(-1,55)	(-171,0)	(-170,0)	(2,0)	(-341,0)	(-2,0)	(-172,16)	(1,11)	(-343,19)	(-342,22)	(-346,2)	(3,0)	(-3,0)	(1,0)	(1,0)	
L1D 346>	(-342,51)	(-1,118)	(-344,11)	(-3,9)	(-174,1)	(-347,4)	(-343,95)	(-173,2)	(-172,34)	(-175,5)	(-2,0)	(-337,1)	(-171,5)	(1,1)	(1,0)	(1,0)	
L1D 347>	(-172,123)	(-1,15)	(-2,12)	(-173,0)	(-343,4)	(-175,11)	(-171,0)	(-345,1)	(-3,0)	(-174,0)	(-344,0)	(1,0)	(1,0)	(1,0)	(1,0)	(1,0)	
L1D 348>	(-270,85)	(-344,62)	(-345,1)	(-2,31)	(-1,11)	(-173,48)	(-172,0)	(-4,3)	(-176,0)	(28,0)	(34,0)	(-246,13)	(-167,0)	(14,0)	(1,0)	(1,0)	
L1D 349>	(-170,1)	(-172,9)	(-1,6)	(-2,1)	(-347,1)	(1,0)	(1,0)	(1,0)	(1,0)	(1,0)	(1,0)	(1,0)	(1,0)	(1,0)	(1,0)	(1,0)	
L1D 350>	(-352,79)	(2,0)	(-314,2)	(-1,0)	(-320,33)	(-318,5)	(-316,4)	(-368,15)	(1,0)	(1,0)	(1,0)	(1,0)	(1,0)	(1,0)	(1,0)	(1,0)	
L1D 351>	(-1,83)	(1,40)	(-172,16)	(-2,9)	(2,2)	(1,0)	(1,0)	(1,0)	(1,0)	(1,0)	(1,0)	(1,0)	(1,0)	(1,0)	(1,0)	(1,0)	
L1D 352>	(-368,25)	(-1,2)	(-320,2)	(1,0)	(1,0)	(1,0)	(1,0)	(1,0)	(1,0)	(1,0)	(1,0)	(1,0)	(1,0)	(1,0)	(1,0)	(1,0)	
L1D 353>	(-2,6)	(-172,46)	(-1,14)	(-345,3)	(1,0)	(1,0)	(1,0)	(1,0)	(1,0)	(1,0)	(1,0)	(1,0)	(1,0)	(1,0)	(1,0)	(1,0)	
L1D 354>	(-356,33)	(-358,15)	(-372,38)	(-312,9)	(-1,2)	(1,0)	(1,0)	(1,0)	(1,0)	(1,0)	(1,0)	(1,0)	(1,0)	(1,0)	(1,0)	(1,0)	
L1D 355>	(-1,6)	(1,1)	(1,0)	(1,0)	(1,0)	(1,0)	(1,0)	(1,0)	(1,0)	(1,0)	(1,0)	(1,0)	(1,0)	(1,0)	(1,0)	(1,0)	
L1D 356>	(-358,58)	(8,20)	(-1,1)	(1,0)	(1,0)	(1,0)	(1,0)	(1,0)	(1,0)	(1,0)	(1,0)	(1,0)	(1,0)	(1,0)	(1,0)	(1,0)	
L1D 357>	(-1,3)	(1,4)	(-383,1)	(1,0)	(1,0)	(1,0)	(1,0)	(1,0)	(1,0)	(1,0)	(1,0)	(1,0)	(1,0)	(1,0)	(1,0)	(1,0)	
L1D 358>	(-2,88)	(-292,1)	(-322,36)	(-432,4)	(1,2)	(-240,2)	(-1,51)	(-232,108)	(-117,11)	(-220,11)	(-430,13)	(-383,6)	(-262,11)	(-345,0)	(-385,0)	(1,0)	
L1D 359>	(-1,124)	(-385,1)	(-384,4)	(1,0)	(1,0)	(1,0)	(1,0)	(1,0)	(1,0)	(1,0)	(1,0)	(1,0)	(1,0)	(1,0)	(1,0)	(1,0)	
L1D 360>	(-350,29)	(-320,1)	(-318,1)	(1,0)	(1,0)	(1,0)	(1,0)	(1,0)	(1,0)	(1,0)	(1,0)	(1,0)	(1,0)	(1,0)	(1,0)	(1,0)	
L1D 361>	(1,0)	(1,0)	(1,0)	(1,0)	(1,0)	(1,0)	(1,0)	(1,0)	(1,0)	(1,0)	(1,0)	(1,0)	(1,0)	(1,0)	(1,0)	(1,0)	
L1D 362>	(-286,5)	(14,18)	(-14,2)	(-350,2)	(-284,1)	(1,0)	(1,0)	(1,0)	(1,0)	(1,0)	(1,0)	(1,0)	(1,0)	(1,0)	(1,0)	(1,0)	
L1D 363>	(1,5)	(-323,2)	(1,0)	(1,0)	(1,0)	(1,0)	(1,0)	(1,0)	(1,0)	(1,0)	(1,0)	(1,0)	(1,0)	(1,0)	(1,0)	(1,0)	
L1D 364>	(-1,6)	(-325,0)	(-123,109)	(-2,4)	(-4,0)	(-323,0)	(1,0)	(1,0)	(1,0)	(1,0)	(1,0)	(1,0)	(1,0)	(1,0)	(1,0)	(1,0)	
L1D 365>	(-1,67)	(-324,2)	(-325,0)	(-290,0)	(1,0)	(1,0)	(1,0)	(1,0)	(1,0)	(1,0)	(1,0)	(1,0)	(1,0)	(1,0)	(1,0)	(1,0)	
L1D 366>	(1,2)	(-1,1)	(1,0)	(1,0)	(1,0)	(1,0)	(1,0)	(1,0)	(1,0)	(1,0)	(1,0)	(1,0)	(1,0)	(1,0)	(1,0)	(1,0)	
L1D 367>	(-1,8)	(1,0)	(1,0)	(1,0)	(1,0)	(1,0)	(1,0)	(1,0)	(1,0)	(1,0)	(1,0)	(1,0)	(1,0)	(1,0)	(1,0)	(1,0)	
L1D 368>	(-314,24)	(-320,5)	(-318,3)	(-316,2)	(1,0)	(1,0)	(1,0)	(1,0)	(1,0)	(1,0)	(1,0)	(1,0)	(1,0)	(1,0)	(1,0)	(1,0)	
L1D 369>	(-1,1)	(-326,1)	(1,0)	(1,0)	(1,0)	(1,0)	(1,0)	(1,0)	(1,0)	(1,0)	(1,0)	(1,0)	(1,0)	(1,0)	(1,0)	(1,0)	
L1D 370>	(-280,82)	(-56,1)	(1,0)	(1,0)	(1,0)	(1,0)	(1,0)	(1,0)	(1,0)	(1,0)	(1,0)	(1,0)	(1,0)	(1,0)	(1,0)	(1,0)	
L1D 371>	(1,0)	(1,0)	(1,0)	(1,0)	(1,0)	(1,0)	(1,0)	(1,0)	(1,0)	(1,0)	(1,0)	(1,0)	(1,0)	(1,0)	(1,0)	(1,0)	
L1D 372>	(-312,40)	(-1,1)	(1,0)	(1,0)	(1,0)	(1,0)	(1,0)	(1,0)	(1,0)	(1,0)	(1,0)	(1,0)	(1,0)	(1,0)	(1,0)	(1,0)	
L1D 373>	(-1,1)	(1,0)	(1,0)	(1,0)	(1,0)	(1,0)	(1,0)	(1,0)	(1,0)	(1,0)	(1,0)	(1,0)	(1,0)	(1,0)	(1,0)	(1,0)	
L1D 374>	(-302,77)	(-334,4)	(-336,2)	(1,0)	(1,0)	(1,0)	(1,0)	(1,0)	(1,0)	(1,0)	(1,0)	(1,0)	(1,0)	(1,0)	(1,0)	(1,0)	
L1D 375>	(1,0)	(1,0)	(1,0)	(1,0)	(1,0)	(1,0)	(1,0)	(1,0)	(1,0)	(1,0)	(1,0)	(1,0)	(1,0)	(1,0)	(1,0)	(1,0)	
L1D 376>	(-324,31)	(-328,101)	(-326,21)	(-302,2)	(-364,1)	(1,0)	(1,0)	(1,0)	(1,0)	(1,0)	(1,0)	(1,0)	(1,0)	(1,0)	(1,0)	(1,0)	
L1D 377>	(1,0)	(1,0)	(1,0)	(1,0)	(1,0)	(1,0)	(1,0)	(1,0)	(1,0)	(1,0)	(1,0)	(1,0)	(1,0)	(1,0)	(1,0)	(1,0)	
L1D 378>	(1,0)	(1,0)	(1,0)	(1,0)	(1,0)	(1,0)	(1,0)	(1,0)	(1,0)	(1,0)	(1,0)	(1,0)	(1,0)	(1,0)	(1,0)	(1,0)	
L1D 379>	(1,0)	(1,0)	(1,0)	(1,0)	(1,0)	(1,0)	(1,0)	(1,0)	(1,0)	(1,0)	(1,0)	(1,0)	(1,0)	(1,0)	(1,0)	(1,0)	
L1D 380>	(1,1)	(-1,1)	(1,0)	(1,0)	(1,0)	(1,0)	(1,0)	(1,0)	(1,0)	(1,0)	(1,0)	(1,0)	(1,0)	(1,0)	(1,0)	(1,0)	
L1D 381>	(1,0)	(1,0)	(1,0)	(1,0)	(1,0)	(1,0)	(1,0)	(1,0)	(1,0)	(1,0)	(1,0)	(1,0)	(1,0)	(1,0)	(1,0)	(1,0)	
L1D 382>	(-88,86)	(6,89)	(8,101)	(16,7)	(-34,17)	(-1,0)	(1,0)	(1,0)	(1,0)	(1,0)	(1,0)	(1,0)	(1,0)	(1,0)	(1,0)	(1,0)	
L1D 383>	(1,3)	(-1,5)	(-387,2)	(1,0)	(1,0)	(1,0)	(1,0)	(1,0)	(1,0)	(1,0)	(1,0)	(1,0)	(1,0)	(1,0)	(1,0)	(1,0)	
L1D 384>	(-354,115)	(-2,117)	(-1,87)	(1,12)	(-387,12)	(-358,2)	(-389,2)	(-356,1)	(1,0)	(1,0)	(1,0)	(1,0)	(1,0)	(1,0)	(1,0)	(1,0)	
L1D 385>	(-1,126)	(-388,4)	(1,0)	(1,0)	(1,0)	(1,0)	(1,0)	(1,0)	(1,0)	(1,0)	(1,0)	(1,0)	(1,0)	(1,0)	(1,0)	(1,0)	
L1D 386>	(1,1)	(-1,2)	(1,0)	(1,0)	(1,0)	(1,0)	(1,0)	(1,0)	(1,0)	(1,0)	(1,0)	(1,0)	(1,0)	(1,0)	(1,0)	(1,0)	
L1D 387>	(-1,9)	(1,5)	(-482,1)	(0,1)	(1,0)	(1,0)	(1,0)	(1,0)	(1,0)	(1,0)	(1,0)	(1,0)	(1,0)	(1,0)	(1,0)	(1,0)	
L1D 388>	(-1,99)	(-376,56)	(-6,61)	(-126,24)	(1,19)	(-363,12)	(1,0)	(1,0)	(1,0)	(1,0)	(1,0)	(1,0)	(1,0)	(1,0)	(1,0)	(1,0)	
L1D 389>	(-1,125)	(-365,3)	(-364,5)	(1,0)	(1,0)	(1,0)	(1,0)	(1,0)	(1,0)	(1,0)	(1,0)	(1,0)	(1,0)	(1,0)	(1,0)	(1,0)	
L1D 390>	(-8,61)	(-1,2)	(1,0)	(1,0)	(1,0)	(1,0)	(1,0)	(1,0)	(1,0)	(1,0)	(1,0)	(1,0)	(1,0)	(1,0)	(1,0)	(1,0)	
L1D 391>	(-1,2)	(1,0)	(1,0)	(1,0)	(1,0)	(1,0)	(1,0)	(1,0)	(1,0)	(1,0)	(1,0)	(1,0)	(1,0)	(1,0)	(1,0)	(1,0)	
L1D 392>	(-98,21)	(-146,1)	(1,0)	(1,0)	(1,0)	(1,0)	(1,0)	(1,0)	(1,0)	(1,0)	(1,0)	(1,0)	(1,0)	(1,0)	(1,0)	(1,0)	
L1D 393>	(1,1)	(1,0)	(1,0)	(1,0)	(1,0)	(1,0)	(1,0)	(1,0)	(1,0)	(1,0)	(1,0)	(1,0)	(1,0)	(1,0)	(1,0)	(1,0)	
L1D 394>	(-132,38)	(1,0)	(1,0)	(1,0)	(1,0)	(1,0)	(1,0)	(1,0)	(1,0)	(1,0)	(1,0)	(1,0)	(1,0)	(1,0)	(1,0)	(1,0)	
L1D 395>	(-1,1)	(1,0)	(1,0)	(1,0)	(1,0)	(1,0)	(1,0)	(1,0)	(1,0)	(1,0)	(1,0)	(1,0)	(1,0)	(1,0)	(1,0)	(1,0)	
L1D 396>	(1,0)	(1,0)	(1,0)	(1,0)	(1,0)	(1,0)	(1,0)	(1,0)	(1,0)	(1,0)	(1,0)	(1,0)	(1,0)	(1,0)	(1,0)	(1,0)	
L1D 397>	(1,0)	(1,0)	(1,0)	(1,0)	(1,0)	(1,0)	(1,0)	(1,0)	(1,0)	(1,0)	(1,0)	(1,0)	(1,0)	(1,0)	(1,0)	(1,0)	
L1D 398>	(-16,8)	(1,0)	(1,0)	(1,0)	(1,0)	(1,0)	(1,0)	(1,0)	(1,0)	(1,0)	(1,0)	(1,0)	(1,0)	(1,0)	(1,0)	(1,0)	
L1D 399>	(1,0)	(1,0)	(1,0)	(1,0)	(1,0)	(1,0)	(1,0)	(1,0)	(1,0)	(1,0)	(1,0)	(1,0)	(1,0)	(1,0)	(1,0)	(1,0)	
L1D 400>	(1,0)	(1,0)	(1,0)	(1,0)	(1,0)	(1,0)	(1,0)	(1,0)	(1,0)	(1,0)	(1,0)	(1,0)	(1,0)	(1,0)	(1,0)	(1,0)	
L1D 401>	(1,0)	(1,0)	(1,0)	(1,0)	(1,0)	(1,0)	(1,0)	(1,0)	(1,0)	(1,0)	(1,0)	(1,0)	(1,0)	(1,0)	(1,0)	(1,0)	
L1D 402>	(-94,18)	(1,0)	(1,0)	(1,0)	(1,0)	(1,0)	(1,0)	(1,0)	(1,0)	(1,0)	(1,0)	(1,0)	(1,0)	(1,0)	(1,0)	(1,0)	
L1D 403>	(1,0)	(1,0)	(1,0)	(1,0)	(1,0)	(1,0)	(1,0)	(1,0)	(1,0)	(1,0)	(1,0)	(1,0)	(1,0)	(1,0)	(1,0)	(1,0)	
L1D 404>	(-402,63)	(-96,7)	(1,0)	(1,0)	(1,0)	(1,0)	(1,0)	(1,0)	(1,0)	(1,0)	(1,0)	(1,0)	(1,0)	(1,0)	(1,0)	(1,0)	
L1D 405>	(1,0)	(1,0)	(1,0)	(1,0)	(1,0)	(1,0)	(1,0)	(1,0)	(1,0)	(1,0)	(1,0)	(1,0)	(1,0)	(1,0)	(1,0)	(1,0)	
L1D 406>	(-1,1)	(1,0)	(1,0)	(1,0)	(1,0)	(1,0)	(1,0)	(1,0)	(1,0)	(1,0)	(1,0)	(1,0)	(1,0)	(1,0)	(1,0)	(1,0)	
L1D 407>	(-1,1)	(1,0)	(1,0)	(1,0)	(1,0)	(1,0)	(1,0)	(1,0)	(1,0)	(1,0)	(1,0)	(1,0)	(1,0)	(1,0)	(1,0)	(1,0)	
L1D 408>	(-398,14)	(1,0)	(1,0)	(1,0)	(1,0)	(1,0)	(1,0)	(1,0)	(1,0)	(1,0)	(1,0)	(1,0)	(1,0)	(1,0)	(1,0)	(1,0)	
L1D 409>	(1,0)	(1,0)	(1,0)	(1,0)	(1,0)	(1,0)	(1,0)	(1,0)	(1,0)	(1,0)	(1,0)	(1,0)	(1,0)	(1,0)	(1,0)	(1,0)	
L1D 410>	(1,0)	(1,0)	(1,0)	(1,0)	(1,0)	(1,0)	(1,0)	(1,0)	(1,0)	(1,0)	(1,0)	(1,0)	(1,0)	(1,0)	(1,0)	(1,0)	
L1D 411>	(1,0)	(1,0)	(1,0)	(1,0)	(1,0)	(1,0)	(1,0)	(1,0)	(1,0)	(1,0)	(1,0)	(1,0)	(1,0)	(1,0)	(1,0)	(1,0)	
L1D 412>	(1,0)	(1,0)	(1,0)	(1,0)	(1,0)	(1,0)	(1,0)	(1,0)	(1,0)	(1,0)	(1,0)	(1,0)	(1,0)	(1,0)	(1,0)	(1,0)	
L1D 413>	(1,0)	(1,0)	(1,0)	(1,0)	(1,0)	(1,0)	(1,0)	(1,0)	(1,0)	(1,0)	(1,0)	(1,0)	(1,0)	(1,0)	(1,0)	(1,0)	
L1D 414>	(-402,19)	(1,0)	(1,0)	(1,0)	(1,0)	(1,0)	(1,0)	(1,0)	(1,0)	(1,0)	(1,0)	(1,0)	(1,0)	(1,0)	(1,0)	(1,0)	
L1D 415>	(1,0)	(1,0)	(1,0)	(1,0)	(1,0)	(1,0)	(1,0)	(1,0)	(1,0)	(1,0)	(1,0)	(1,0)	(1,0)	(1,0)	(1,0)	(1,0)	
L1D 416>	(-228,125)	(-322,7)	(-230,9)	(1,0)	(1,0)	(1,0)	(1,0)	(1,0)	(1,0)	(1,0)	(1,0)	(1,0)	(1,0)	(1,0)	(1,0)	(1,0)	
L1D 417>	(1,0)	(1,0)	(1,0)	(1,0)	(1,0)	(1,0)	(1,0)	(1,0)	(1,0)	(1,0)	(1,0)	(1,0)	(1,0)	(1,0)	(1,0)	(1,0)	
L1D 418>	(1,0)	(1,0)	(1,0)	(1,0)	(1,0)	(1,0)	(1,0)	(1,0)	(1,0)	(1,0)	(1,0)	(1,0)	(1,0)	(1,0)	(1,0)	(1,0)	
L1D 419>	(1,0)	(1,0)	(1,0)	(1,0)	(1,0)	(1,0)	(1,0)	(1,0)	(1,0)	(1,0)	(1,0)	(1,0)	(1,0)	(1,0)	(1,0)	(1,0)	
L1D 420>	(1,0)	(1,0)	(1,0)	(1,0)	(1,0)	(1,0)	(1,0)	(1,0)	(1,0)	(1,0)	(1,0)	(1,0)	(1,0)	(1,0)	(1,0)	(1,0)	
L1D 421>	(1,0)	(1,0)	(1,0)	(1,0)	(1,0)	(1,0)	(1,0)	(1,0)	(1,0)	(1,0)	(1,0)	(1,0)	(1,0)	(1,0)	(1,0)	(1,0)	
L1D 422>	(1,0)	(1,0)	(1,0)	(1,0)	(1,0)	(1,0)	(1,0)	(1,0)	(1,0)	(1,0)	(1,0)	(1,0)	(1,0)	(1,0)	(1,0)	(1,0)	
L1D 423>	(1,0)	(1,0)	(1,0)	(1,0)	(1,0)	(1,0)	(1,0)	(1,0)	(1,0)	(1,0)	(1,0)	(1,0)	(1,0)	(1,0)	(1,0)	(1,0)	
L1D 424>	(1,0)	(1,0)	(1,0)	(1,0)	(1,0)	(1,0)	(1,0)	(1,0)	(1,0)	(1,0)	(1,0)	(1,0)	(1,0)	(1,0)	(1,0)	(1,0)	
L1D 425>	(1,0)	(1,0)	(1,0)	(1,0)	(1,0)	(1,0)	(1,0)	(1,0)	(1,0)	(1,0)	(1,0)	(1,0)	(1,0)	(1,0)	(1,0)	(1,0)	
L1D 426>	(1,0)	(1,0)	(1,0)	(1,0)	(1,0)	(1,0)	(1,0)	(1,0)	(1,0)	(1,0)	(1,0)	(1,0)	(1,0)	(1,0)	(1,0)	(1,0)	
L1D 427>	(1,0)	(1,0)	(1,0)	(1,0)	(1,0)	(1,0)	(1,0)	(1,0)	(1,0)	(1,0)	(1,0)	(1,0)	(1,0)	(1,0)	(1,0)	(1,0)	
L1D 428>	(-230,75)	(1,0)	(1,0)	(1,0)	(1,0)	(1,0)	(1,0)	(1,0)	(1,0)	(1,0)	(1,0)	(1,0)	(1,0)	(1,0)	(1,0)	(1,0)	
L1D 429>	(1,0)	(1,0)	(1,0)	(1,0)	(1,0)	(1,0)	(1,0)	(1,0)	(1,0)	(1,0)	(1,0)	(1,0)	(1,0)	(1,0)	(1,0)	(1,0)	
L1D 430>	(-414,125)	(-432,2)	(-230,8)	(-264,0)	(-398,16)	(-292,0)	(-324,2)	(-434,1)	(1,0)	(1,0)	(1,0)	(1,0)	(1,0)	(1,0)	(1,0)	(1,0)	
L1D 431>	(1,0)	(1,0)	(1,0)	(1,0)	(1,0)	(1,0)	(1,0)	(1,0)	(1,0)	(1,0)	(1,0)	(1,0)	(1,0)	(1,0)	(1,0)	(1,0)	
L1D 432>	(-2,117)	(-414,10)	(-342,8)	(-232,40)	(1,0)	(1,0)	(1,0)	(1,0)	(1,0)	(1,0)	(1,0)	(1,0)	(1,0)	(1,0)	(1,0)	(1,0)	
L1D 433>	(1,0)	(1,0)	(1,0)	(1,0)	(1,0)	(1,0)	(1,0)	(1,0)	(1,0)	(1,0)	(1,0)	(1,0)	(1,0)	(1,0)	(1,0)	(1,0)	
L1D 434>	(-398,19)	(1,0)	(1,0)	(1,0)	(1,0)	(1,0)	(1,0)	(1,0)	(1,0)	(1,0)	(1,0)	(1,0)	(1,0)	(1,0)	(1,0)	(1,0)	
L1D 435>	(1,0)	(1,0)	(1,0)	(1,0)	(1,0)	(1,0)	(1,0)	(1,0)	(1,0)	(1,0)	(1,0)	(1,0)	(1,0)	(1,0)	(1,0)	(1,0)	
L1D 436>	(1,0)	(1,0)	(1,0)	(1,0)	(1,0)	(1,0)	(1,0)	(1,0)	(1,0)	(1,0)	(1,0)	(1,0)	(1,0)	(1,0)	(1,0)	(1,0)	
L1D 437>	(1,0)	(1,0)	(1,0)	(1,0)	(1,0)	(1,0)	(1,0)	(1,0)	(1,0)	(1,0)	(1,0)	(1,0)	(1,0)	(1,0)	(1,0)	(1,0)	
L1D 438>	(1,0)	(1,0)	(1,0)	(1,0)	(1,0)	(1,0)	(1,0)	(1,0)	(1,0)	(1,0)	(1,0)	(1,0)	(1,0)	(1,0)	(1,0)	(1,0)	
L1D 439>	(1,0)	(1,0)	(1,0)	(1,0)	(1,0)	(1,0)	(1,0)	(1,0)	(1,0)	(1,0)	(1,0)	(1,0)	(1,0)	(1,0)	(1,0)	(1,0)	
L1D 440>	(-280,21)	(-210,21)	(-1,1)	(1,0)	(1,0)	(1,0)	(1,0)	(1,0)	(1,0)	(1,0)	(1,0)	(1,0)	(1,0)	(1,0)	(1,0)	(1,0)	
L1D 441>	(-474,1)	(1,0)	(1,0)	(1,0)	(1,0)	(1,0)	(1,0)	(1,0)	(1,0)	(1,0)	(1,0)	(1,0)	(1,0)	(1,0)	(1,0)	(1,0)	
L1D 442>	(1,0)	(1,0)	(1,0)	(1,0)	(1,0)	(1,0)	(1,0)	(1,0)	(1,0)	(1,0)	(1,0)	(1,0)	(1,0)	(1,0)	(1,0)	(1,0)	
L1D 443>	(1,0)	(1,0)	(1,0)	(1,0)	(1,0)	(1,0)	(1,0)	(1,0)	(1,0)	(1,0)	(1,0)	(1,0)	(1,0)	(1,0)	(1,0)	(1,0)	
L1D 444>	(-402,96)	(1,0)	(1,0)	(1,0)	(1,0)	(1,0)	(1,0)	(1,0)	(1,0)	(1,0)	(1,0)	(1,0)	(1,0)	(1,0)	(1,0)	(1,0)	
L1D 445>	(1,0)	(1,0)	(1,0)	(1,0)	(1,0)	(1,0)	(1,0)	(1,0)	(1,0)	(1,0)	(1,0)	(1,0)	(1,0)	(1,0)	(1,0)	(1,0)	
L1D 446>	(1,0)	(1,0)	(1,0)	(1,0)	(1,0)	(1,0)	(1,0)	(1,0)	(1,0)	(1,0)	(1,0)	(1,0)	(1,0)	(1,0)	(1,0)	(1,0)	
L1D 447>	(1,0)	(1,0)	(1,0)	(1,0)	(1,0)	(1,0)	(1,0)	(1,0)	(1,0)	(1,0)	(1,0)	(1,0)	(1,0)	(1,0)	(1,0)	(1,0)	
L1D 448>	(1,0)	(1,0)	(1,0)	(1,0)	(1,0)	(1,0)	(1,0)	(1,0)	(1,0)	(1,0)	(1,0)	(1,0)	(1,0)	(1,0)	(1,0)	(1,0)	
L1D 449>	(1,0)	(1,0)	(1,0)	(1,0)	(1,0)	(1,0)	(1,0)	(1,0)	(1,0)	(1,0)	(1,0)	(1,0)	(1,0)	(1,0)	(1,0)	(1,0)	
L1D 450>	(-451,1)	(1,0)	(1,0)	(1,0)	(1,0)	(1,0)	(1,0)	(1,0)	(1,0)	(1,0)	(1,0)	(1,0)	(1,0)	(1,0)	(1,0)	(1,0)	
L1D 451>	(1,0)	(1,0)	(1,0)	(1,0)	(1,0)	(1,0)	(1,0)	(1,0)	(1,0)	(1,0)	(1,0)	(1,0)	(1,0)	(1,0)	(1,0)	(1,0)	
L1D 452>	(1,0)	(1,0)	(1,0)	(1,0)	(1,0)	(1,0)	(1,0)	(1,0)	(1,0)	(1,0)	(1,0)	(1,0)	(1,0)	(1,0)	(1,0)	(1,0)	
L1D 453>	(1,0)	(1,0)	(1,0)	(1,0)	(1,0)	(1,0)	(1,0)	(1,0)	(1,0)	(1,0)	(1,0)	(1,0)	(1,0)	(1,0)	(1,0)	(1,0)	
L1D 454>	(1,0)	(1,0)	(1,0)	(1,0)	(1,0)	(1,0)	(1,0)	(1,0)	(1,0)	(1,0)	(1,0)	(1,0)	(1,0)	(1,0)	(1,0)	(1,0)	
L1D 455>	(1,0)	(1,0)	(1,0)	(1,0)	(1,0)	(1,0)	(1,0)	(1,0)	(1,0)	(1,0)	(1,0)	(1,0)	(1,0)	(1,0)	(1,0)	(1,0)	
L1D 456>	(1,0)	(1,0)	(1,0)	(1,0)	(1,0)	(1,0)	(1,0)	(1,0)	(1,0)	(1,0)	(1,0)	(1,0)	(1,0)	(1,0)	(1,0)	(1,0)	
L1D 457>	(1,0)	(1,0)	(1,0)	(1,0)	(1,0)	(1,0)	(1,0)	(1,0)	(1,0)	(1,0)	(1,0)	(1,0)	(1,0)	(1,0)	(1,0)	(1,0)	
L1D 458>	(1,0)	(1,0)	(1,0)	(1,0)	(1,0)	(1,0)	(1,0)	(1,0)	(1,0)	(1,0)	(1,0)	(1,0)	(1,0)	(1,0)	(1,0)	(1,0)	
L1D 459>	(1,0)	(1,0)	(1,0)	(1,0)	(1,0)	(1,0)	(1,0)	(1,0)	(1,0)	(1,0)	(1,0)	(1,0)	(1,0)	(1,0)	(1,0)	(1,0)	
L1D 460>	(1,0)	(1,0)	(1,0)	(1,0)	(1,0)	(1,0)	(1,0)	(1,0)	(1,0)	(1,0)	(1,0)	(1,0)	(1,0)	(1,0)	(1,0)	(1,0)	
L1D 461>	(1,0)	(1,0)	(1,0)	(1,0)	(1,0)	(1,0)	(1,0)	(1,0)	(1,0)	(1,0)	(1,0)	(1,0)	(1,0)	(1,0)	(1,0)	(1,0)	
L1D 462>	(1,0)	(1,0)	(1,0)	(1,0)	(1,0)	(1,0)	(1,0)	(1,0)	(1,0)	(1,0)	(1,0)	(1,0)	(1,0)	(1,0)	(1,0)	(1,0)	
L1D 463>	(1,0)	(1,0)	(1,0)	(1,0)	(1,0)	(1,0)	(1,0)	(1,0)	(1,0)	(1,0)	(1,0)	(1,0)	(1,0)	(1,0)	(1,0)	(1,0)	
L1D 464>	(1,0)	(1,0)	(1,0)	(1,0)	(1,0)	(1,0)	(1,0)	(1,0)	(1,0)	(1,0)	(1,0)	(1,0)	(1,0)	(1,0)	(1,0)	(1,0)	
L1D 465>	(1,0)	(1,0)	(1,0)	(1,0)	(1,0)	(1,0)	(1,0)	(1,0)	(1,0)	(1,0)	(1,0)	(1,0)	(1,0)	(1,0)	(1,0)	(1,0)	
L1D 466>	(1,0)	(1,0)	(1,0)	(1,0)	(1,0)	(1,0)	(1,0)	(1,0)	(1,0)	(1,0)	(1,0)	(1,0)	(1,0)	(1,0)	(1,0)	(1,0)	
L1D 467>	(1,0)	(1,0)	(1,0)	(1,0)	(1,0)	(1,0)	(1,0)	(1,0)	(1,0)	(1,0)	(1,0)	(1,0)	(1,0)	(1,0)	(1,0)	(1,0)	
L1D 468>	(1,0)	(1,0)	(1,0)	(1,0)	(1,0)	(1,0)	(1,0)	(1,0)	(1,0)	(1,0)	(1,0)	(1,0)	(1,0)	(1,0)	(1,0)	(1,0)	
L1D 469>	(1,0)	(1,0)	(1,0)	(1,0)	(1,0)	(1,0)	(1,0)	(1,0)	(1,0)	(1,0)	(1,0)	(1,0)	(1,0)	(1,0)	(1,0)	(1,0)	
L1D 470>	(1,0)	(1,0)	(1,0)	(1,0)	(1,0)	(1,0)	(1,0)	(1,0)	(1,0)	(1,0)	(1,0)	(1,0)	(1,0)	(1,0)	(1,0)	(1,0)	
L1D 471>	(1,0)	(1,0)	(1,0)	(1,0)	(1,0)	(1,0)	(1,0)	(1,0)	(1,0)	(1,0)	(1,0)	(1,0)	(1,0)	(1,0)	(1,0)	(1,0)	
L1D 472>	(1,0)	(1,0)	(1,0)	(1,0)	(1,0)	(1,0)	(1,0)	(1,0)	(1,0)	(1,0)	(1,0)	(1,0)	(1,0)	(1,0)	(1,0)	(1,0)	
L1D 473>	(1,0)	(1,0)	(1,0)	(1,0)	(1,0)	(1,0)	(1,0)	(1,0)	(1,0)	(1,0)	(1,0)	(1,0)	(1,0)	(1,0)	(1,0)	(1,0)	
L1D 474>	(1,0)	(1,0)	(1,0)	(1,0)	(1,0)	(1,0)	(1,0)	(1,0)	(1,0)	(1,0)	(1,0)	(1,0)	(1,0)	(1,0)	(1,0)	(1,0)	
L1D 475>	(1,0)	(1,0)	(1,0)	(1,0)	(1,0)	(1,0)	(1,0)	(1,0)	(1,0)	(1,0)	(1,0)	(1,0)	(1,0)	(1,0)	(1,0)	(1,0)	
L1D 476>	(1,0)	(1,0)	(1,0)	(1,0)	(1,0)	(1,0)	(1,0)	(1,0)	(1,0)	(1,0)	(1,0)	(1,0)	(1,0)	(1,0)	(1,0)	(1,0)	
L1D 477>	(1,0)	(1,0)	(1,0)	(1,0)	(1,0)	(1,0)	(1,0)	(1,0)	(1,0)	(1,0)	(1,0)	(1,0)	(1,0)	(1,0)	(1,0)	(1,0)	
L1D 478>	(1,0)	(1,0)	(1,0)	(1,0)	(1,0)	(1,0)	(1,0)	(1,0)	(1,0)	(1,0)	(1,0)	(1,0)	(1,0)	(1,0)	(1,0)	(1,0)	
L1D 479>	(1,0)	(1,0)	(1,0)	(1,0)	(1,0)	(1,0)	(1,0)	(1,0)	(1,0)	(1,0)	(1,0)	(1,0)	(1,0)	(1,0)	(1,0)	(1,0)	
L1D 480>	(1,0)	(1,0)	(1,0)	(1,0)	(1,0)	(1,0)	(1,0)	(1,0)	(1,0)	(1,0)	(1,0)	(1,0)	(1,0)	(1,0)	(1,0)	(1,0)	
L1D 481>	(1,0)	(1,0)	(1,0)	(1,0)	(1,0)	(1,0)	(1,0)	(1,0)	(1,0)	(1,0)	(1,0)	(1,0)	(1,0)	(1,0)	(1,0)	(1,0)	
L1D 482>	(-385,1)	(-483,1)	(1,0)	(1,0)	(1,0)	(1,0)	(1,0)	(1,0)	(1,0)	(1,0)	(1,0)	(1,0)	(1,0)	(1,0)	(1,0)	(1,0)	
L1D 483>	(1,0)	(1,0)	(1,0)	(1,0)	(1,0)	(1,0)	(1,0)	(1,0)	(1,0)	(1,0)	(1,0)	(1,0)	(1,0)	(1,0)	(1,0)	(1,0)	
L1D 484>	(1,0)	(1,0)	(1,0)	(1,0)	(1,0)	(1,0)	(1,0)	(1,0)	(1,0)	(1,0)	(1,0)	(1,0)	(1,0)	(1,0)	(1,0)	(1,0)	
L1D 485>	(1,0)	(1,0)	(1,0)	(1,0)	(1,0)	(1,0)	(1,0)	(1,0)	(1,0)	(1,0)	(1,0)	(1,0)	(1,0)	(1,0)	(1,0)	(1,0)	
L1D 486>	(1,0)	(1,0)	(1,0)	(1,0)	(1,0)	(1,0)	(1,0)	(1,0)	(1,0)	(1,0)	(1,0)	(1,0)	(1,0)	(1,0)	(1,0)	(1,0)	
L1D 487>	(1,0)	(1,0)	(1,0)	(1,0)	(1,0)	(1,0)	(1,0)	(1,0)	(1,0)	(1,0)	(1,0)	(1,0)	(1,0)	(1,0)	(1,0)	(1,0)	
L1D 488>	(1,0)	(1,0)	(1,0)	(1,0)	(1,0)	(1,0)	(1,0)	(1,0)	(1,0)	(1,0)	(1,0)	(1,0)	(1,0)	(1,0)	(1,0)	(1,0)	
L1D 489>	(1,0)	(1,0)	(1,0)	(1,0)	(1,0)	(1,0)	(1,0)	(1,0)	(1,0)	(1,0)	(1,0)	(1,0)	(1,0)	(1,0)	(1,0)	(1,0)	
L1D 490>	(1,0)	(1,0)	(1,0)	(1,0)	(1,0)	(1,0)	(1,0)	(1,0)	(1,0)	(1,0)	(1,0)	(1,0)	(1,0)	(1,0)	(1,0)	(1,0)	
L1D 491>	(1,0)	(1,0)	(1,0)	(1,0)	(1,0)	(1,0)	(1,0)	(1,0)	(1,0)	(1,0)	(1,0)	(1,0)	(1,0)	(1,0)	(1,0)	(1,0)	
L1D 492>	(1,0)	(1,0)	(1,0)	(1,0)	(1,0)	(1,0)	(1,0)	(1,0)	(1,0)	(1,0)	(1,0)	(1,0)	(1,0)	(1,0)	(1,0)	(1,0)	
L1D 493>	(1,0)	(1,0)	(1,0)	(1,0)	(1,0)	(1,0)	(1,0)	(1,0)	(1,0)	(1,0)	(1,0)	(1,0)	(1,0)	(1,0)	(1,0)	(1,0)	
L1D 494>	(1,0)	(1,0)	(1,0)	(1,0)	(1,0)	(1,0)	(1,0)	(1,0)	(1,0)	(1,0)	(1,0)	(1,0)	(1,0)	(1,0)	(1,0)	(1,0)	
L1D 495>	(1,0)	(1,0)	(1,0)	(1,0)	(1,0)	(1,0)	(1,0)	(1,0)	(1,0)	(1,0)	(1,0)	(1,0)	(1,0)	(1,0)	(1,0)	(1,0)	
L1D 496>	(1,0)	(1,0)	(1,0)	(1,0)	(1,0)	(1,0)	(1,0)	(1,0)	(1,0)	(1,0)	(1,0)	(1,0)	(1,0)	(1,0)	(1,0)	(1,0)	
L1D 497>	(1,0)	(1,0)	(1,0)	(1,0)	(1,0)	(1,0)	(1,0)	(1,0)	(1,0)	(1,0)	(1,0)	(1,0)	(1,0)	(1,0)	(1,0)	(1,0)	
L1D 498>	(1,0)	(1,0)	(1,0)	(1,0)	(1,0)	(1,0)	(1,0)	(1,0)	(1,0)	(1,0)	(1,0)	(1,0)	(1,0)	(1,0)	(1,0)	(1,0)	
L1D 499>	(1,0)	(1,0)	(1,0)	(1,0)	(1,0)	(1,0)	(1,0)	(1,0)	(1,0)	(1,0)	(1,0)	(1,0)	(1,0)	(1,0)	(1,0)	(1,0)	
L1D 500>	(1,0)	(1,0)	(1,0)	(1,0)	(1,0)	(1,0)	(1,0)	(1,0)	(1,0)	(1,0)	(1,0)	(1,0)	(1,0)	(1,0)	(1,0)	(1,0)	
L1D 501>	(1,0)	(1,0)	(1,0)	(1,0)	(1,0)	(1,0)	(1,0)	(1,0)	(1,0)	(1,0)	(1,0)	(1,0)	(1,0)	(1,0)	(1,0)	(1,0)	
L1D 502>	(1,0)	(1,0)	(1,0)	(1,0)	(1,0)	(1,0)	(1,0)	(1,0)	(1,0)	(1,0)	(1,0)	(1,0)	(1,0)	(1,0)	(1,0)	(1,0)	
L1D 503>	(1,0)	(1,0)	(1,0)	(1,0)	(1,0)	(1,0)	(1,0)	(1,0)	(1,0)	(1,0)	(1,0)	(1,0)	(1,0)	(1,0)	(1,0)	(1,0)	
L1D 504>	(1,0)	(1,0)	(1,0)	(1,0)	(1,0)	(1,0)	(1,0)	(1,0)	(1,0)	(1,0)	(1,0)	(1,0)	(1,0)	(1,0)	(1,0)	(1,0)	
L1D 505>	(1,0)	(1,0)	(1,0)	(1,0)	(1,0)	(1,0)	(1,0)	(1,0)	(1,0)	(1,0)	(1,0)	(1,0)	(1,0)	(1,0)	(1,0)	(1,0)	
L1D 506>	(1,0)	(1,0)	(1,0)	(1,0)	(1,0)	(1,0)	(1,0)	(1,0)	(1,0)	(1,0)	(1,0)	(1,0)	(1,0)	(1,0)	(1,0)	(1,0)	
L1D 507>	(1,0)	(1,0)	(1,0)	(1,0)	(1,0)	(1,0)	(1,0)	(1,0)	(1,0)	(1,0)	(1,0)	(1,0)	(1,0)	(1,0)	(1,0)	(1,0)	
L1D 508>	(1,0)	(1,0)	(1,0)	(1,0)	(1,0)	(1,0)	(1,0)	(1,0)	(1,0)	(1,0)	(1,0)	(1,0)	(1,0)	(1,0)	(1,0)	(1,0)	
L1D 509>	(1,0)	(1,0)	(1,0)	(1,0)	(1,0)	(1,0)	(1,0)	(1,0)	(1,0)	(1,0)	(1,0)	(1,0)	(1,0)	(1,0)	(1,0)	(1,0)	
L1D 510>	(1,0)	(1,0)	(1,0)	(1,0)	(1,0)	(1,0)	(1,0)	(1,0)	(1,0)	(1,0)	(1,0)	(1,0)	(1,0)	(1,0)	(1,0)	(1,0)	
L1D 511>	(1,0)	(1,0)	(1,0)	(1,0)	(1,0)	(1,0)	(1,0)	(1,0)	(1,0)	(1,0)	(1,0)	(1,0)	(1,0)	(1,0)	(1,0)	(1,0)	

DRAM Statistics
 CHANNEL 0
 RQ ROW_BUFFER_HIT:      10173  ROW_BUFFER_MISS:      16382
 DBUS_CONGESTED:       6210
 WQ ROW_BUFFER_HIT:       1195  ROW_BUFFER_MISS:       4209  FULL:          0

 AVG_CONGESTED_CYCLE: 6

CPU 0 Branch Prediction Accuracy: 99.3148% MPKI: 0.0621 Average ROB Occupancy at Mispredict: 10.3188

Branch types
NOT_BRANCH: 9909363 99.0936%
BRANCH_DIRECT_JUMP: 11032 0.11032%
BRANCH_INDIRECT: 1814 0.01814%
BRANCH_CONDITIONAL: 55956 0.55956%
BRANCH_DIRECT_CALL: 10911 0.10911%
BRANCH_INDIRECT_CALL: 0 0%
BRANCH_RETURN: 10911 0.10911%
BRANCH_OTHER: 0 0%

