
*** ChampSim Multicore Out-of-Order Simulator ***

Warmup Instructions: 10000000
Simulation Instructions: 10000000
Number of CPUs: 1
LLC sets: 2048
LLC ways: 16
Off-chip DRAM Size: 4096 MB Channels: 1 Width: 64-bit Data Rate: 3200 MT/s

CPU 0 runs ./lpf-traces//620.omnetpp_s-874B.champsimtrace.xz
CPU 0 Bimodal branch predictor
Heartbeat CPU 0 instructions: 10000001 cycles: 5588820 heartbeat IPC: 1.78929 cumulative IPC: 1.78929 (Simulation time: 0 hr 0 min 57 sec) 

Warmup complete CPU 0 instructions: 10000001 cycles: 5588820 (Simulation time: 0 hr 0 min 57 sec) 

Heartbeat CPU 0 instructions: 20000000 cycles: 33590606 heartbeat IPC: 0.35712 cumulative IPC: 0.35712 (Simulation time: 0 hr 1 min 41 sec) 
Finished CPU 0 instructions: 10000003 cycles: 28001787 cumulative IPC: 0.35712 (Simulation time: 0 hr 1 min 41 sec) 

ChampSim completed all CPUs

Region of Interest Statistics

CPU 0 cumulative IPC: 0.35712 instructions: 10000003 cycles: 28001787
L1D TOTAL     ACCESS:    9424585  HIT:    8965037  MISS:     459548
L1D LOAD      ACCESS:    2433055  HIT:    2289881  MISS:     143174
L1D RFO       ACCESS:    1816059  HIT:    1797562  MISS:      18497
L1D PREFETCH  ACCESS:    5175471  HIT:    4877594  MISS:     297877
L1D WRITEBACK ACCESS:          0  HIT:          0  MISS:          0
L1D PREFETCH  REQUESTED:   40648798  ISSUED:   37640040  USEFUL:      43303  USELESS:     254605
L1D AVERAGE MISS LATENCY: 149.444 cycles
L1I TOTAL     ACCESS:    1775771  HIT:    1771936  MISS:       3835
L1I LOAD      ACCESS:    1775771  HIT:    1771936  MISS:       3835
L1I RFO       ACCESS:          0  HIT:          0  MISS:          0
L1I PREFETCH  ACCESS:          0  HIT:          0  MISS:          0
L1I WRITEBACK ACCESS:          0  HIT:          0  MISS:          0
L1I PREFETCH  REQUESTED:          0  ISSUED:          0  USEFUL:          0  USELESS:          0
L1I AVERAGE MISS LATENCY: 35.563 cycles
L2C TOTAL     ACCESS:     569231  HIT:     229118  MISS:     340113
L2C LOAD      ACCESS:     141224  HIT:      55618  MISS:      85606
L2C RFO       ACCESS:      18119  HIT:       5372  MISS:      12747
L2C PREFETCH  ACCESS:     310484  HIT:      69264  MISS:     241220
L2C WRITEBACK ACCESS:      99404  HIT:      98864  MISS:        540
L2C PREFETCH  REQUESTED:      11089  ISSUED:      10986  USEFUL:       8786  USELESS:     232200
L2C AVERAGE MISS LATENCY: 175.043 cycles
LLC TOTAL     ACCESS:     412281  HIT:     148854  MISS:     263427
LLC LOAD      ACCESS:      85589  HIT:      25915  MISS:      59674
LLC RFO       ACCESS:      12689  HIT:       6306  MISS:       6383
LLC PREFETCH  ACCESS:     241295  HIT:      44647  MISS:     196648
LLC WRITEBACK ACCESS:      72708  HIT:      71986  MISS:        722
LLC PREFETCH  REQUESTED:          0  ISSUED:          0  USEFUL:       6418  USELESS:     189528
LLC AVERAGE MISS LATENCY: 174.984 cycles
Major fault: 0 Minor fault: 28793

L1D -512>	(0,79)	(-1,11)	(17,1)	(10,1)	(3,1)	(5,6)	(6,1)	(4,9)	(2,7)	(18,1)	(20,2)	(68,1)	(-9,1)	(28,17)	(-504,1)	(1,19)	
L1D -511>	(1,0)	(1,0)	(1,0)	(1,0)	(1,0)	(1,0)	(1,0)	(1,0)	(1,0)	(1,0)	(1,0)	(1,0)	(1,0)	(1,0)	(1,0)	(1,0)	
L1D -510>	(146,1)	(1,1)	(18,2)	(79,1)	(1,0)	(1,0)	(1,0)	(1,0)	(1,0)	(1,0)	(1,0)	(1,0)	(1,0)	(1,0)	(1,0)	(1,0)	
L1D -509>	(1,0)	(1,0)	(1,0)	(1,0)	(1,0)	(1,0)	(1,0)	(1,0)	(1,0)	(1,0)	(1,0)	(1,0)	(1,0)	(1,0)	(1,0)	(1,0)	
L1D -508>	(98,2)	(99,1)	(1,0)	(1,0)	(1,0)	(1,0)	(1,0)	(1,0)	(1,0)	(1,0)	(1,0)	(1,0)	(1,0)	(1,0)	(1,0)	(1,0)	
L1D -507>	(1,0)	(1,0)	(1,0)	(1,0)	(1,0)	(1,0)	(1,0)	(1,0)	(1,0)	(1,0)	(1,0)	(1,0)	(1,0)	(1,0)	(1,0)	(1,0)	
L1D -506>	(-1,1)	(1,0)	(1,0)	(1,0)	(1,0)	(1,0)	(1,0)	(1,0)	(1,0)	(1,0)	(1,0)	(1,0)	(1,0)	(1,0)	(1,0)	(1,0)	
L1D -505>	(5,1)	(1,0)	(1,0)	(1,0)	(1,0)	(1,0)	(1,0)	(1,0)	(1,0)	(1,0)	(1,0)	(1,0)	(1,0)	(1,0)	(1,0)	(1,0)	
L1D -504>	(98,3)	(0,1)	(79,1)	(93,2)	(504,1)	(55,1)	(456,1)	(1,0)	(1,0)	(1,0)	(1,0)	(1,0)	(1,0)	(1,0)	(1,0)	(1,0)	
L1D -503>	(4,1)	(1,0)	(1,0)	(1,0)	(1,0)	(1,0)	(1,0)	(1,0)	(1,0)	(1,0)	(1,0)	(1,0)	(1,0)	(1,0)	(1,0)	(1,0)	
L1D -502>	(112,1)	(47,1)	(79,1)	(99,1)	(69,1)	(5,1)	(1,0)	(1,0)	(1,0)	(1,0)	(1,0)	(1,0)	(1,0)	(1,0)	(1,0)	(1,0)	
L1D -501>	(5,1)	(0,1)	(1,0)	(1,0)	(1,0)	(1,0)	(1,0)	(1,0)	(1,0)	(1,0)	(1,0)	(1,0)	(1,0)	(1,0)	(1,0)	(1,0)	
L1D -500>	(112,1)	(18,2)	(5,1)	(99,2)	(98,1)	(4,1)	(1,0)	(1,0)	(1,0)	(1,0)	(1,0)	(1,0)	(1,0)	(1,0)	(1,0)	(1,0)	
L1D -499>	(0,1)	(500,1)	(1,0)	(1,0)	(1,0)	(1,0)	(1,0)	(1,0)	(1,0)	(1,0)	(1,0)	(1,0)	(1,0)	(1,0)	(1,0)	(1,0)	
L1D -498>	(106,1)	(93,2)	(47,2)	(135,1)	(79,1)	(0,1)	(495,5)	(69,1)	(1,0)	(1,0)	(1,0)	(1,0)	(1,0)	(1,0)	(1,0)	(1,0)	
L1D -497>	(1,2)	(146,1)	(142,1)	(0,1)	(4,1)	(336,1)	(1,0)	(1,0)	(1,0)	(1,0)	(1,0)	(1,0)	(1,0)	(1,0)	(1,0)	(1,0)	
L1D -496>	(82,1)	(69,1)	(0,3)	(1,0)	(1,0)	(1,0)	(1,0)	(1,0)	(1,0)	(1,0)	(1,0)	(1,0)	(1,0)	(1,0)	(1,0)	(1,0)	
L1D -495>	(1,2)	(5,1)	(0,2)	(-6,1)	(495,1)	(120,1)	(1,0)	(1,0)	(1,0)	(1,0)	(1,0)	(1,0)	(1,0)	(1,0)	(1,0)	(1,0)	
L1D -494>	(1,3)	(99,1)	(112,1)	(41,1)	(336,1)	(1,0)	(1,0)	(1,0)	(1,0)	(1,0)	(1,0)	(1,0)	(1,0)	(1,0)	(1,0)	(1,0)	
L1D -493>	(1,3)	(0,3)	(1,0)	(1,0)	(1,0)	(1,0)	(1,0)	(1,0)	(1,0)	(1,0)	(1,0)	(1,0)	(1,0)	(1,0)	(1,0)	(1,0)	
L1D -492>	(5,1)	(492,1)	(0,1)	(1,1)	(336,1)	(1,0)	(1,0)	(1,0)	(1,0)	(1,0)	(1,0)	(1,0)	(1,0)	(1,0)	(1,0)	(1,0)	
L1D -491>	(0,2)	(1,1)	(1,0)	(1,0)	(1,0)	(1,0)	(1,0)	(1,0)	(1,0)	(1,0)	(1,0)	(1,0)	(1,0)	(1,0)	(1,0)	(1,0)	
L1D -490>	(2,1)	(3,1)	(47,3)	(166,1)	(340,1)	(266,1)	(4,2)	(1,1)	(1,0)	(1,0)	(1,0)	(1,0)	(1,0)	(1,0)	(1,0)	(1,0)	
L1D -489>	(0,3)	(1,2)	(1,0)	(1,0)	(1,0)	(1,0)	(1,0)	(1,0)	(1,0)	(1,0)	(1,0)	(1,0)	(1,0)	(1,0)	(1,0)	(1,0)	
L1D -488>	(102,1)	(47,5)	(79,2)	(1,1)	(-2,1)	(55,1)	(0,1)	(344,1)	(258,1)	(1,0)	(1,0)	(1,0)	(1,0)	(1,0)	(1,0)	(1,0)	
L1D -487>	(1,4)	(-2,1)	(22,1)	(1,0)	(1,0)	(1,0)	(1,0)	(1,0)	(1,0)	(1,0)	(1,0)	(1,0)	(1,0)	(1,0)	(1,0)	(1,0)	
L1D -486>	(0,1)	(85,1)	(98,1)	(93,1)	(44,1)	(146,1)	(1,1)	(82,1)	(18,1)	(344,1)	(498,1)	(58,1)	(1,0)	(1,0)	(1,0)	(1,0)	
L1D -485>	(0,1)	(354,1)	(473,1)	(5,1)	(1,1)	(348,1)	(1,0)	(1,0)	(1,0)	(1,0)	(1,0)	(1,0)	(1,0)	(1,0)	(1,0)	(1,0)	
L1D -484>	(34,1)	(85,1)	(47,2)	(98,2)	(0,1)	(1,2)	(99,1)	(5,1)	(146,3)	(95,1)	(79,2)	(1,0)	(1,0)	(1,0)	(1,0)	(1,0)	
L1D -483>	(1,7)	(3,3)	(92,1)	(0,2)	(1,0)	(1,0)	(1,0)	(1,0)	(1,0)	(1,0)	(1,0)	(1,0)	(1,0)	(1,0)	(1,0)	(1,0)	
L1D -482>	(4,1)	(105,1)	(98,1)	(1,1)	(69,1)	(14,1)	(0,1)	(85,1)	(1,0)	(1,0)	(1,0)	(1,0)	(1,0)	(1,0)	(1,0)	(1,0)	
L1D -481>	(158,1)	(140,1)	(1,1)	(18,1)	(0,1)	(1,0)	(1,0)	(1,0)	(1,0)	(1,0)	(1,0)	(1,0)	(1,0)	(1,0)	(1,0)	(1,0)	
L1D -480>	(14,1)	(146,2)	(0,3)	(4,1)	(47,1)	(79,1)	(99,2)	(1,1)	(89,1)	(63,1)	(34,1)	(10,1)	(1,0)	(1,0)	(1,0)	(1,0)	
L1D -479>	(0,4)	(12,1)	(1,2)	(4,1)	(1,0)	(1,0)	(1,0)	(1,0)	(1,0)	(1,0)	(1,0)	(1,0)	(1,0)	(1,0)	(1,0)	(1,0)	
L1D -478>	(5,1)	(0,1)	(3,1)	(1,2)	(67,1)	(353,1)	(47,2)	(120,1)	(352,1)	(1,0)	(1,0)	(1,0)	(1,0)	(1,0)	(1,0)	(1,0)	
L1D -477>	(5,1)	(1,4)	(0,1)	(-23,1)	(1,0)	(1,0)	(1,0)	(1,0)	(1,0)	(1,0)	(1,0)	(1,0)	(1,0)	(1,0)	(1,0)	(1,0)	
L1D -476>	(-1,2)	(0,1)	(1,1)	(146,1)	(69,1)	(1,0)	(1,0)	(1,0)	(1,0)	(1,0)	(1,0)	(1,0)	(1,0)	(1,0)	(1,0)	(1,0)	
L1D -475>	(5,1)	(136,2)	(4,1)	(1,4)	(-1,1)	(124,1)	(0,2)	(1,0)	(1,0)	(1,0)	(1,0)	(1,0)	(1,0)	(1,0)	(1,0)	(1,0)	
L1D -474>	(0,1)	(5,1)	(4,1)	(146,1)	(1,2)	(81,1)	(47,1)	(3,1)	(1,0)	(1,0)	(1,0)	(1,0)	(1,0)	(1,0)	(1,0)	(1,0)	
L1D -473>	(1,4)	(0,1)	(140,2)	(356,1)	(146,1)	(346,1)	(1,0)	(1,0)	(1,0)	(1,0)	(1,0)	(1,0)	(1,0)	(1,0)	(1,0)	(1,0)	
L1D -472>	(1,2)	(101,1)	(5,1)	(356,1)	(0,2)	(1,0)	(1,0)	(1,0)	(1,0)	(1,0)	(1,0)	(1,0)	(1,0)	(1,0)	(1,0)	(1,0)	
L1D -471>	(1,5)	(2,1)	(142,1)	(124,2)	(0,4)	(10,3)	(5,1)	(140,1)	(1,0)	(1,0)	(1,0)	(1,0)	(1,0)	(1,0)	(1,0)	(1,0)	
L1D -470>	(1,3)	(0,6)	(58,1)	(34,1)	(112,1)	(18,1)	(1,0)	(1,0)	(1,0)	(1,0)	(1,0)	(1,0)	(1,0)	(1,0)	(1,0)	(1,0)	
L1D -469>	(0,2)	(116,1)	(1,4)	(5,1)	(58,1)	(350,1)	(1,0)	(1,0)	(1,0)	(1,0)	(1,0)	(1,0)	(1,0)	(1,0)	(1,0)	(1,0)	
L1D -468>	(55,1)	(107,1)	(69,1)	(1,2)	(146,1)	(129,2)	(458,1)	(0,1)	(2,1)	(1,0)	(1,0)	(1,0)	(1,0)	(1,0)	(1,0)	(1,0)	
L1D -467>	(1,5)	(3,1)	(439,1)	(0,2)	(126,1)	(108,1)	(-1,1)	(4,1)	(336,1)	(114,2)	(10,1)	(364,1)	(134,1)	(-3,1)	(1,0)	(1,0)	
L1D -466>	(1,3)	(82,1)	(0,2)	(98,1)	(194,1)	(107,1)	(146,1)	(-34,1)	(64,1)	(1,0)	(1,0)	(1,0)	(1,0)	(1,0)	(1,0)	(1,0)	
L1D -465>	(1,2)	(2,1)	(-1,1)	(5,2)	(-10,1)	(386,1)	(120,1)	(1,0)	(1,0)	(1,0)	(1,0)	(1,0)	(1,0)	(1,0)	(1,0)	(1,0)	
L1D -464>	(385,3)	(-1,1)	(1,4)	(3,1)	(45,1)	(462,1)	(98,1)	(0,3)	(14,1)	(115,1)	(17,1)	(69,1)	(1,0)	(1,0)	(1,0)	(1,0)	
L1D -463>	(1,4)	(144,2)	(122,2)	(100,1)	(128,1)	(0,1)	(1,0)	(1,0)	(1,0)	(1,0)	(1,0)	(1,0)	(1,0)	(1,0)	(1,0)	(1,0)	
L1D -462>	(129,1)	(460,1)	(0,5)	(1,2)	(77,1)	(268,1)	(-1,2)	(368,1)	(1,0)	(1,0)	(1,0)	(1,0)	(1,0)	(1,0)	(1,0)	(1,0)	
L1D -461>	(108,2)	(68,1)	(2,4)	(1,3)	(368,1)	(-10,1)	(376,1)	(17,2)	(100,1)	(130,1)	(0,2)	(1,0)	(1,0)	(1,0)	(1,0)	(1,0)	
L1D -460>	(107,1)	(85,3)	(2,1)	(1,3)	(442,1)	(47,1)	(352,1)	(0,1)	(146,2)	(376,1)	(35,1)	(1,0)	(1,0)	(1,0)	(1,0)	(1,0)	
L1D -459>	(120,1)	(1,6)	(0,4)	(5,1)	(124,1)	(466,1)	(4,1)	(146,1)	(-1,1)	(1,0)	(1,0)	(1,0)	(1,0)	(1,0)	(1,0)	(1,0)	
L1D -458>	(1,7)	(134,1)	(-6,3)	(344,1)	(7,1)	(-1,1)	(101,1)	(384,1)	(0,3)	(1,0)	(1,0)	(1,0)	(1,0)	(1,0)	(1,0)	(1,0)	
L1D -457>	(459,1)	(0,3)	(1,7)	(112,1)	(5,2)	(70,1)	(24,1)	(-6,1)	(2,1)	(1,0)	(1,0)	(1,0)	(1,0)	(1,0)	(1,0)	(1,0)	
L1D -456>	(98,1)	(71,1)	(1,6)	(441,1)	(140,1)	(385,3)	(0,3)	(5,1)	(304,1)	(374,1)	(62,1)	(89,1)	(1,0)	(1,0)	(1,0)	(1,0)	
L1D -455>	(10,1)	(14,1)	(68,26)	(5,1)	(0,4)	(2,6)	(86,1)	(1,7)	(124,1)	(29,1)	(376,2)	(-10,1)	(1,0)	(1,0)	(1,0)	(1,0)	
L1D -454>	(0,25)	(1,46)	(79,1)	(57,2)	(83,1)	(85,1)	(374,1)	(334,1)	(98,3)	(34,1)	(1,0)	(1,0)	(1,0)	(1,0)	(1,0)	(1,0)	
L1D -453>	(1,7)	(112,2)	(2,2)	(110,1)	(447,1)	(124,1)	(1,0)	(1,0)	(1,0)	(1,0)	(1,0)	(1,0)	(1,0)	(1,0)	(1,0)	(1,0)	
L1D -452>	(91,2)	(1,3)	(69,1)	(0,2)	(376,1)	(116,1)	(340,1)	(452,1)	(1,0)	(1,0)	(1,0)	(1,0)	(1,0)	(1,0)	(1,0)	(1,0)	
L1D -451>	(1,6)	(2,1)	(100,1)	(0,7)	(70,5)	(120,1)	(451,1)	(5,1)	(-6,1)	(1,0)	(1,0)	(1,0)	(1,0)	(1,0)	(1,0)	(1,0)	
L1D -450>	(1,2)	(91,1)	(5,1)	(0,6)	(97,1)	(382,1)	(85,1)	(384,1)	(1,0)	(1,0)	(1,0)	(1,0)	(1,0)	(1,0)	(1,0)	(1,0)	
L1D -449>	(68,123)	(2,0)	(110,2)	(0,0)	(1,1)	(1,0)	(1,0)	(1,0)	(1,0)	(1,0)	(1,0)	(1,0)	(1,0)	(1,0)	(1,0)	(1,0)	
L1D -448>	(1,7)	(68,10)	(61,1)	(0,4)	(378,1)	(91,1)	(1,0)	(1,0)	(1,0)	(1,0)	(1,0)	(1,0)	(1,0)	(1,0)	(1,0)	(1,0)	
L1D -447>	(5,19)	(1,14)	(0,2)	(-6,2)	(108,1)	(2,1)	(132,1)	(-10,2)	(4,1)	(1,0)	(1,0)	(1,0)	(1,0)	(1,0)	(1,0)	(1,0)	
L1D -446>	(0,2)	(77,2)	(1,8)	(4,1)	(382,1)	(384,1)	(224,1)	(-1,1)	(-6,1)	(1,0)	(1,0)	(1,0)	(1,0)	(1,0)	(1,0)	(1,0)	
L1D -445>	(1,9)	(5,3)	(2,3)	(445,2)	(0,4)	(-10,1)	(212,1)	(146,1)	(393,1)	(388,1)	(352,1)	(318,1)	(1,0)	(1,0)	(1,0)	(1,0)	
L1D -444>	(1,2)	(0,4)	(-2,1)	(105,2)	(-12,1)	(384,2)	(53,2)	(28,1)	(81,1)	(5,1)	(1,0)	(1,0)	(1,0)	(1,0)	(1,0)	(1,0)	
L1D -443>	(1,11)	(5,3)	(2,3)	(0,2)	(102,1)	(4,1)	(54,1)	(-1,1)	(29,1)	(20,1)	(108,2)	(62,1)	(442,1)	(-2,1)	(120,1)	(1,0)	
L1D -442>	(61,1)	(53,2)	(-3,3)	(1,6)	(0,5)	(107,1)	(5,3)	(124,1)	(-1,1)	(-4,1)	(424,1)	(1,0)	(1,0)	(1,0)	(1,0)	(1,0)	
L1D -441>	(1,7)	(2,2)	(5,3)	(60,1)	(0,2)	(122,1)	(396,1)	(86,1)	(10,1)	(1,0)	(1,0)	(1,0)	(1,0)	(1,0)	(1,0)	(1,0)	
L1D -440>	(0,5)	(1,6)	(61,2)	(3,1)	(-3,1)	(34,1)	(73,1)	(440,2)	(2,1)	(434,1)	(14,1)	(392,1)	(346,1)	(69,1)	(95,1)	(107,1)	
L1D -439>	(5,11)	(1,11)	(2,2)	(116,3)	(0,3)	(70,2)	(124,1)	(10,1)	(92,1)	(56,1)	(1,0)	(1,0)	(1,0)	(1,0)	(1,0)	(1,0)	
L1D -438>	(466,1)	(-20,1)	(79,1)	(118,1)	(142,2)	(61,1)	(1,6)	(2,1)	(4,2)	(91,1)	(34,3)	(392,2)	(0,5)	(419,1)	(5,13)	(124,1)	
L1D -437>	(1,11)	(2,1)	(10,1)	(102,3)	(0,2)	(5,2)	(344,1)	(437,1)	(1,0)	(1,0)	(1,0)	(1,0)	(1,0)	(1,0)	(1,0)	(1,0)	
L1D -436>	(1,5)	(63,2)	(-1,2)	(433,2)	(54,1)	(118,1)	(0,3)	(44,1)	(99,1)	(73,1)	(5,1)	(1,0)	(1,0)	(1,0)	(1,0)	(1,0)	
L1D -435>	(1,16)	(0,8)	(88,1)	(70,2)	(2,2)	(29,1)	(372,1)	(5,1)	(1,0)	(1,0)	(1,0)	(1,0)	(1,0)	(1,0)	(1,0)	(1,0)	
L1D -434>	(5,5)	(63,1)	(108,1)	(401,1)	(-1,1)	(0,7)	(2,2)	(1,7)	(124,3)	(61,1)	(-3,1)	(383,1)	(398,1)	(394,2)	(158,1)	(246,1)	
L1D -433>	(2,2)	(1,9)	(5,5)	(0,6)	(-1,1)	(-10,1)	(-6,1)	(342,1)	(108,1)	(56,1)	(1,0)	(1,0)	(1,0)	(1,0)	(1,0)	(1,0)	
L1D -432>	(414,6)	(1,10)	(2,1)	(5,4)	(3,3)	(0,2)	(61,1)	(55,1)	(398,1)	(-1,3)	(91,1)	(1,0)	(1,0)	(1,0)	(1,0)	(1,0)	
L1D -431>	(-20,1)	(1,8)	(249,1)	(100,2)	(4,1)	(2,1)	(-10,1)	(5,3)	(29,1)	(0,1)	(96,1)	(14,1)	(1,0)	(1,0)	(1,0)	(1,0)	
L1D -430>	(412,2)	(410,1)	(122,1)	(1,5)	(0,4)	(61,1)	(100,1)	(106,1)	(102,1)	(144,1)	(63,3)	(4,1)	(342,1)	(430,1)	(-1,1)	(404,1)	
L1D -429>	(2,3)	(1,13)	(5,4)	(0,7)	(7,1)	(6,1)	(402,1)	(430,1)	(119,1)	(415,1)	(447,1)	(8,1)	(56,1)	(1,0)	(1,0)	(1,0)	
L1D -428>	(0,4)	(100,1)	(404,1)	(75,1)	(1,3)	(431,1)	(410,1)	(108,1)	(99,3)	(416,1)	(364,1)	(38,1)	(1,0)	(1,0)	(1,0)	(1,0)	
L1D -427>	(1,14)	(5,15)	(2,1)	(0,4)	(-5,1)	(3,1)	(348,1)	(70,1)	(-10,1)	(391,1)	(76,1)	(1,0)	(1,0)	(1,0)	(1,0)	(1,0)	
L1D -426>	(0,3)	(1,88)	(27,61)	(414,8)	(53,1)	(40,22)	(4,19)	(34,2)	(37,1)	(-20,1)	(61,1)	(5,1)	(120,1)	(402,1)	(466,1)	(26,1)	
L1D -425>	(1,17)	(5,9)	(0,8)	(84,1)	(56,1)	(416,1)	(-1,1)	(1,0)	(1,0)	(1,0)	(1,0)	(1,0)	(1,0)	(1,0)	(1,0)	(1,0)	
L1D -424>	(0,5)	(1,8)	(406,7)	(-20,1)	(412,2)	(5,3)	(103,1)	(71,1)	(402,1)	(404,1)	(414,1)	(53,1)	(69,1)	(442,1)	(416,2)	(61,1)	
L1D -423>	(1,28)	(5,26)	(4,1)	(2,4)	(390,1)	(0,5)	(414,1)	(-38,1)	(10,3)	(420,1)	(-10,2)	(284,1)	(1,0)	(1,0)	(1,0)	(1,0)	
L1D -422>	(2,87)	(0,3)	(1,10)	(14,1)	(-3,1)	(91,2)	(34,2)	(89,1)	(124,2)	(5,1)	(404,1)	(369,1)	(86,1)	(54,1)	(416,1)	(412,1)	
L1D -421>	(0,16)	(4,1)	(1,14)	(415,1)	(2,2)	(5,3)	(10,2)	(421,2)	(91,1)	(422,1)	(1,0)	(1,0)	(1,0)	(1,0)	(1,0)	(1,0)	
L1D -420>	(0,3)	(379,1)	(69,3)	(83,1)	(1,4)	(34,1)	(53,2)	(146,1)	(92,3)	(5,4)	(396,1)	(2,1)	(-28,1)	(410,1)	(434,1)	(402,1)	
L1D -419>	(1,21)	(2,1)	(5,8)	(0,12)	(378,1)	(76,2)	(419,3)	(29,1)	(420,1)	(418,2)	(400,1)	(416,6)	(56,1)	(10,2)	(414,1)	(1,0)	
L1D -418>	(385,1)	(406,1)	(1,38)	(0,16)	(100,1)	(418,10)	(402,2)	(419,8)	(412,1)	(414,1)	(86,1)	(416,21)	(-20,1)	(38,1)	(324,1)	(1,0)	
L1D -417>	(-26,0)	(-10,119)	(417,0)	(0,0)	(-22,0)	(416,14)	(1,2)	(84,0)	(418,0)	(1,0)	(1,0)	(1,0)	(1,0)	(1,0)	(1,0)	(1,0)	
L1D -416>	(15,0)	(0,7)	(417,19)	(134,0)	(-42,0)	(172,0)	(240,0)	(-1,3)	(-27,0)	(221,0)	(-47,0)	(1,17)	(415,0)	(416,81)	(-2,3)	(49,0)	
L1D -415>	(1,7)	(0,16)	(4,1)	(2,3)	(415,109)	(3,1)	(193,1)	(113,1)	(157,1)	(-1,14)	(416,25)	(102,1)	(-19,0)	(70,0)	(413,0)	(72,0)	
L1D -414>	(1,4)	(416,6)	(-1,2)	(414,72)	(415,14)	(0,60)	(-2,1)	(-28,0)	(100,0)	(224,0)	(44,0)	(110,0)	(-72,0)	(58,0)	(5,0)	(102,0)	
L1D -413>	(5,2)	(0,34)	(-10,2)	(2,6)	(19,1)	(90,1)	(-6,1)	(93,1)	(-1,16)	(1,25)	(416,3)	(418,1)	(83,1)	(413,116)	(414,23)	(11,0)	
L1D -412>	(413,56)	(0,75)	(412,106)	(1,69)	(394,2)	(202,2)	(354,1)	(-1,3)	(104,1)	(6,1)	(-2,2)	(78,1)	(-52,1)	(-76,1)	(416,2)	(5,2)	
L1D -411>	(0,107)	(411,0)	(-7,0)	(-10,0)	(1,0)	(1,0)	(1,0)	(1,0)	(1,0)	(1,0)	(1,0)	(1,0)	(1,0)	(1,0)	(1,0)	(1,0)	
L1D -410>	(3,5)	(53,2)	(92,1)	(0,7)	(1,4)	(377,2)	(-2,1)	(410,3)	(5,1)	(336,1)	(-1,2)	(418,2)	(392,4)	(68,1)	(388,1)	(411,1)	
L1D -409>	(0,6)	(1,21)	(2,2)	(5,6)	(-1,1)	(410,1)	(409,4)	(418,1)	(-10,1)	(3,1)	(1,0)	(1,0)	(1,0)	(1,0)	(1,0)	(1,0)	
L1D -408>	(0,9)	(396,3)	(1,8)	(408,1)	(4,1)	(-1,2)	(390,5)	(409,3)	(61,1)	(418,1)	(87,1)	(350,1)	(400,1)	(5,2)	(310,1)	(37,1)	
L1D -407>	(0,6)	(387,1)	(1,16)	(5,5)	(2,1)	(-20,1)	(7,1)	(82,1)	(407,2)	(396,1)	(-10,1)	(1,0)	(1,0)	(1,0)	(1,0)	(1,0)	
L1D -406>	(394,11)	(1,11)	(0,13)	(92,2)	(406,3)	(403,1)	(116,2)	(388,2)	(-9,1)	(91,2)	(5,3)	(322,1)	(53,1)	(416,1)	(1,0)	(1,0)	
L1D -405>	(1,34)	(5,6)	(0,3)	(56,1)	(403,1)	(2,4)	(404,1)	(405,3)	(-1,1)	(386,1)	(-10,1)	(354,1)	(393,1)	(1,0)	(1,0)	(1,0)	
L1D -404>	(61,3)	(3,2)	(1,13)	(0,4)	(392,6)	(6,2)	(384,1)	(2,2)	(386,2)	(5,3)	(398,1)	(108,1)	(405,2)	(120,1)	(122,1)	(1,0)	
L1D -403>	(1,8)	(0,5)	(5,4)	(402,1)	(6,1)	(403,6)	(61,1)	(4,2)	(27,1)	(-1,1)	(80,1)	(7,1)	(35,1)	(398,1)	(-38,1)	(1,0)	
L1D -402>	(382,2)	(3,3)	(390,9)	(34,1)	(0,8)	(1,8)	(4,1)	(402,3)	(403,10)	(98,1)	(174,1)	(254,1)	(384,2)	(18,1)	(5,1)	(443,1)	
L1D -401>	(1,15)	(395,3)	(0,6)	(5,2)	(401,5)	(400,1)	(-2,1)	(402,9)	(230,1)	(-10,2)	(2,2)	(56,1)	(-9,1)	(356,1)	(19,1)	(1,0)	
L1D -400>	(3,1)	(18,1)	(-1,3)	(0,7)	(399,1)	(1,5)	(5,5)	(382,3)	(2,1)	(43,1)	(401,1)	(-3,1)	(388,1)	(400,2)	(298,1)	(376,1)	
L1D -399>	(0,6)	(1,17)	(126,1)	(2,2)	(5,1)	(400,3)	(399,5)	(150,1)	(59,1)	(56,2)	(396,1)	(1,0)	(1,0)	(1,0)	(1,0)	(1,0)	
L1D -398>	(397,1)	(5,1)	(1,7)	(0,9)	(12,1)	(386,2)	(398,10)	(395,7)	(-1,1)	(2,1)	(298,1)	(404,1)	(62,1)	(1,0)	(1,0)	(1,0)	
L1D -397>	(5,5)	(2,1)	(1,10)	(0,5)	(8,1)	(-1,1)	(10,2)	(398,6)	(397,9)	(-6,1)	(1,0)	(1,0)	(1,0)	(1,0)	(1,0)	(1,0)	
L1D -396>	(402,1)	(1,8)	(5,1)	(396,9)	(0,4)	(397,9)	(393,1)	(-1,1)	(384,1)	(92,1)	(372,1)	(1,0)	(1,0)	(1,0)	(1,0)	(1,0)	
L1D -395>	(1,9)	(0,7)	(2,1)	(5,1)	(4,1)	(395,14)	(336,1)	(396,2)	(-1,1)	(3,1)	(1,0)	(1,0)	(1,0)	(1,0)	(1,0)	(1,0)	
L1D -394>	(1,8)	(5,2)	(0,4)	(43,1)	(388,1)	(52,1)	(-1,1)	(395,7)	(382,2)	(394,3)	(361,1)	(414,1)	(1,0)	(1,0)	(1,0)	(1,0)	
L1D -393>	(1,13)	(5,2)	(2,1)	(56,1)	(146,1)	(393,9)	(394,5)	(76,1)	(0,2)	(412,1)	(1,0)	(1,0)	(1,0)	(1,0)	(1,0)	(1,0)	
L1D -392>	(6,1)	(0,4)	(394,1)	(1,7)	(391,1)	(-1,1)	(3,1)	(5,3)	(414,1)	(393,4)	(380,1)	(2,1)	(1,0)	(1,0)	(1,0)	(1,0)	
L1D -391>	(1,15)	(0,6)	(312,1)	(2,3)	(391,7)	(128,1)	(5,3)	(298,1)	(4,2)	(392,3)	(134,1)	(408,1)	(428,1)	(1,0)	(1,0)	(1,0)	
L1D -390>	(0,6)	(5,9)	(1,7)	(372,5)	(391,7)	(-108,1)	(390,5)	(414,2)	(-2,1)	(396,2)	(3,1)	(387,1)	(378,1)	(290,1)	(37,1)	(298,1)	
L1D -389>	(0,6)	(1,12)	(2,3)	(389,10)	(395,1)	(3,1)	(385,3)	(388,1)	(60,1)	(390,6)	(120,1)	(368,1)	(-1,1)	(1,0)	(1,0)	(1,0)	
L1D -388>	(0,3)	(2,2)	(376,2)	(5,3)	(37,1)	(1,7)	(91,1)	(120,1)	(389,7)	(-22,1)	(43,1)	(372,1)	(388,2)	(387,2)	(1,0)	(1,0)	
L1D -387>	(114,41)	(0,12)	(1,10)	(5,4)	(2,6)	(387,11)	(388,4)	(118,1)	(56,1)	(82,1)	(1,0)	(1,0)	(1,0)	(1,0)	(1,0)	(1,0)	
L1D -386>	(386,96)	(5,0)	(-1,0)	(374,0)	(56,0)	(1,0)	(1,0)	(1,0)	(1,0)	(1,0)	(1,0)	(1,0)	(1,0)	(1,0)	(1,0)	(1,0)	
L1D -385>	(397,1)	(1,13)	(2,2)	(0,6)	(-1,1)	(385,4)	(384,1)	(386,6)	(5,1)	(56,1)	(12,1)	(-10,1)	(416,1)	(46,1)	(1,0)	(1,0)	
L1D -384>	(1,12)	(372,8)	(-48,1)	(73,1)	(351,1)	(0,6)	(385,4)	(398,1)	(5,3)	(392,3)	(121,1)	(8,1)	(333,1)	(384,1)	(1,0)	(1,0)	
L1D -383>	(384,3)	(128,1)	(1,9)	(-1,1)	(3,1)	(382,1)	(110,1)	(385,1)	(383,8)	(30,1)	(155,1)	(0,3)	(1,0)	(1,0)	(1,0)	(1,0)	
L1D -382>	(382,5)	(1,7)	(379,1)	(73,1)	(90,1)	(5,2)	(2,1)	(362,1)	(26,2)	(0,3)	(-1,1)	(383,1)	(388,1)	(1,0)	(1,0)	(1,0)	
L1D -381>	(114,124)	(152,4)	(0,6)	(392,1)	(1,10)	(3,0)	(2,1)	(381,5)	(472,0)	(82,0)	(130,0)	(1,0)	(1,0)	(1,0)	(1,0)	(1,0)	
L1D -380>	(381,4)	(79,2)	(6,2)	(-1,2)	(1,5)	(5,1)	(3,1)	(0,5)	(18,1)	(380,1)	(400,1)	(4,1)	(1,0)	(1,0)	(1,0)	(1,0)	
L1D -379>	(378,3)	(3,2)	(1,14)	(5,1)	(2,4)	(10,1)	(379,2)	(0,4)	(106,1)	(381,1)	(416,1)	(128,1)	(148,1)	(1,0)	(1,0)	(1,0)	
L1D -378>	(378,7)	(0,10)	(1,9)	(-1,1)	(4,1)	(-36,1)	(53,1)	(-109,1)	(-34,1)	(379,2)	(390,3)	(79,2)	(364,1)	(98,1)	(416,1)	(1,0)	
L1D -377>	(1,8)	(0,6)	(10,1)	(110,1)	(6,1)	(2,2)	(378,3)	(126,1)	(146,1)	(377,3)	(27,1)	(397,1)	(72,1)	(398,1)	(1,0)	(1,0)	
L1D -376>	(5,2)	(1,3)	(4,2)	(0,8)	(3,5)	(358,1)	(376,4)	(-1,2)	(377,2)	(388,1)	(124,1)	(372,1)	(360,1)	(416,2)	(98,1)	(1,0)	
L1D -375>	(1,10)	(0,5)	(374,1)	(6,2)	(-1,2)	(3,3)	(5,3)	(2,1)	(91,1)	(18,1)	(128,1)	(148,1)	(375,7)	(444,1)	(312,1)	(389,1)	
L1D -374>	(0,8)	(2,3)	(107,3)	(374,5)	(5,2)	(1,8)	(373,2)	(416,1)	(6,1)	(142,1)	(-4,1)	(76,1)	(98,2)	(85,1)	(-40,1)	(407,1)	
L1D -373>	(1,6)	(74,3)	(2,7)	(0,6)	(102,2)	(5,2)	(373,4)	(3,3)	(126,6)	(400,1)	(58,1)	(146,2)	(374,2)	(6,1)	(4,1)	(1,0)	
L1D -372>	(372,1)	(1,6)	(5,10)	(2,3)	(0,13)	(3,3)	(373,6)	(218,1)	(-1,2)	(107,1)	(366,1)	(380,1)	(248,1)	(-14,1)	(398,1)	(1,0)	
L1D -371>	(1,15)	(72,18)	(90,1)	(56,1)	(2,3)	(276,1)	(5,2)	(402,1)	(372,3)	(0,4)	(6,1)	(120,1)	(371,6)	(60,1)	(-5,1)	(1,0)	
L1D -370>	(63,4)	(-128,1)	(370,4)	(1,7)	(0,9)	(369,1)	(-137,2)	(5,1)	(3,1)	(371,6)	(358,1)	(6,1)	(364,2)	(107,1)	(62,1)	(4,1)	
L1D -369>	(70,5)	(4,4)	(1,10)	(365,1)	(3,3)	(2,3)	(369,2)	(-137,1)	(0,3)	(370,5)	(-1,1)	(114,1)	(1,0)	(1,0)	(1,0)	(1,0)	
L1D -368>	(356,2)	(1,3)	(355,1)	(380,1)	(-1,1)	(368,2)	(0,7)	(369,2)	(4,2)	(136,1)	(18,1)	(5,1)	(-9,1)	(1,0)	(1,0)	(1,0)	
L1D -367>	(-1,3)	(1,14)	(3,1)	(0,4)	(2,1)	(-6,1)	(24,1)	(367,5)	(368,3)	(146,1)	(376,1)	(6,1)	(1,0)	(1,0)	(1,0)	(1,0)	
L1D -366>	(1,2)	(0,6)	(365,1)	(-1,1)	(5,1)	(2,1)	(48,1)	(366,6)	(97,1)	(318,1)	(364,1)	(354,1)	(408,1)	(1,0)	(1,0)	(1,0)	
L1D -365>	(5,2)	(1,13)	(0,6)	(66,1)	(3,1)	(60,35)	(365,8)	(70,3)	(-1,2)	(420,1)	(464,1)	(26,1)	(366,1)	(2,1)	(352,1)	(416,1)	
L1D -364>	(1,11)	(-1,1)	(0,6)	(344,2)	(376,1)	(78,3)	(363,1)	(108,1)	(5,1)	(365,7)	(364,2)	(-2,1)	(388,1)	(416,1)	(24,1)	(71,1)	
L1D -363>	(1,16)	(0,5)	(18,1)	(363,8)	(88,2)	(48,1)	(3,1)	(4,1)	(56,2)	(364,2)	(108,1)	(-1,3)	(416,1)	(107,2)	(122,1)	(92,1)	
L1D -362>	(1,7)	(91,1)	(0,4)	(52,1)	(120,1)	(362,4)	(-1,1)	(78,4)	(71,1)	(5,1)	(72,1)	(363,1)	(77,2)	(274,1)	(-28,1)	(4,1)	
L1D -361>	(1,13)	(0,9)	(6,5)	(62,2)	(3,2)	(4,1)	(360,1)	(416,2)	(-1,1)	(10,1)	(1,0)	(1,0)	(1,0)	(1,0)	(1,0)	(1,0)	
L1D -360>	(3,5)	(0,15)	(121,2)	(146,2)	(1,9)	(-1,7)	(5,1)	(92,1)	(10,1)	(107,1)	(88,1)	(78,1)	(361,1)	(1,0)	(1,0)	(1,0)	
L1D -359>	(60,96)	(0,5)	(1,2)	(130,0)	(359,2)	(360,0)	(-3,0)	(186,0)	(379,0)	(4,0)	(1,0)	(1,0)	(1,0)	(1,0)	(1,0)	(1,0)	
L1D -358>	(384,1)	(60,3)	(356,1)	(91,4)	(82,5)	(-128,1)	(357,1)	(0,6)	(1,7)	(352,1)	(355,1)	(4,1)	(-137,1)	(120,3)	(372,1)	(5,1)	
L1D -357>	(82,1)	(5,10)	(1,10)	(0,8)	(3,6)	(6,3)	(-1,5)	(352,1)	(357,2)	(358,1)	(448,1)	(1,0)	(1,0)	(1,0)	(1,0)	(1,0)	
L1D -356>	(1,7)	(-2,1)	(0,9)	(-137,2)	(357,7)	(356,1)	(142,1)	(344,2)	(416,1)	(176,1)	(24,1)	(1,0)	(1,0)	(1,0)	(1,0)	(1,0)	
L1D -355>	(2,3)	(3,3)	(56,4)	(5,2)	(355,4)	(1,12)	(0,3)	(4,1)	(6,2)	(357,1)	(95,1)	(-1,2)	(1,0)	(1,0)	(1,0)	(1,0)	
L1D -354>	(1,9)	(3,1)	(317,1)	(0,10)	(4,1)	(357,1)	(356,1)	(355,3)	(354,2)	(69,1)	(416,1)	(351,1)	(-68,1)	(86,1)	(107,1)	(1,0)	
L1D -353>	(1,21)	(0,7)	(6,5)	(3,4)	(354,6)	(352,1)	(353,2)	(-1,3)	(2,1)	(-6,2)	(5,2)	(416,1)	(-104,1)	(384,1)	(-2,1)	(1,0)	
L1D -352>	(-1,84)	(312,1)	(6,0)	(353,1)	(317,0)	(0,4)	(409,0)	(91,0)	(122,0)	(1,0)	(1,0)	(1,0)	(1,0)	(1,0)	(1,0)	(1,0)	
L1D -351>	(69,3)	(1,10)	(0,5)	(2,2)	(3,6)	(6,4)	(350,2)	(5,2)	(4,1)	(351,5)	(-1,5)	(24,2)	(374,1)	(136,1)	(18,1)	(380,1)	
L1D -350>	(81,1)	(128,1)	(0,4)	(1,4)	(119,2)	(136,3)	(350,4)	(414,1)	(69,1)	(89,2)	(1,0)	(1,0)	(1,0)	(1,0)	(1,0)	(1,0)	
L1D -349>	(1,16)	(0,6)	(64,5)	(2,4)	(398,1)	(6,5)	(-1,2)	(56,3)	(3,2)	(349,6)	(4,4)	(5,1)	(84,1)	(350,3)	(346,2)	(334,1)	
L1D -348>	(0,12)	(1,10)	(384,1)	(351,1)	(253,1)	(-1,3)	(109,2)	(134,1)	(4,2)	(150,1)	(349,8)	(5,1)	(6,1)	(-70,1)	(53,1)	(162,1)	
L1D -347>	(3,4)	(0,6)	(2,2)	(1,9)	(-1,5)	(64,2)	(347,4)	(84,1)	(-6,2)	(416,1)	(5,1)	(1,0)	(1,0)	(1,0)	(1,0)	(1,0)	
L1D -346>	(0,5)	(341,100)	(160,0)	(4,100)	(61,0)	(358,0)	(349,0)	(-137,0)	(28,0)	(1,0)	(1,0)	(1,0)	(1,0)	(1,0)	(1,0)	(1,0)	
L1D -345>	(1,12)	(-20,1)	(0,10)	(2,3)	(6,4)	(70,1)	(3,1)	(-45,1)	(-1,2)	(345,7)	(28,1)	(93,1)	(77,1)	(122,1)	(1,0)	(1,0)	
L1D -344>	(0,6)	(89,1)	(130,1)	(-1,2)	(5,3)	(1,8)	(344,2)	(343,1)	(380,1)	(56,1)	(345,3)	(3,1)	(416,1)	(342,1)	(-137,1)	(-88,1)	
L1D -343>	(1,0)	(338,93)	(4,1)	(-3,1)	(0,0)	(36,0)	(2,0)	(-6,0)	(1,0)	(1,0)	(1,0)	(1,0)	(1,0)	(1,0)	(1,0)	(1,0)	
L1D -342>	(0,2)	(1,0)	(-4,78)	(4,0)	(343,0)	(347,0)	(337,3)	(410,0)	(346,0)	(1,0)	(1,0)	(1,0)	(1,0)	(1,0)	(1,0)	(1,0)	
L1D -341>	(0,14)	(341,8)	(5,17)	(24,0)	(4,69)	(6,0)	(346,5)	(3,0)	(342,0)	(1,0)	(1,0)	(1,0)	(1,0)	(1,0)	(1,0)	(1,0)	
L1D -340>	(341,68)	(2,1)	(0,6)	(3,5)	(91,1)	(-1,1)	(318,1)	(1,3)	(66,1)	(340,1)	(416,1)	(47,1)	(1,0)	(1,0)	(1,0)	(1,0)	
L1D -339>	(1,42)	(3,10)	(0,5)	(-3,60)	(56,2)	(338,9)	(-10,1)	(-1,7)	(6,2)	(2,2)	(5,1)	(339,6)	(112,1)	(418,1)	(340,1)	(146,1)	
L1D -338>	(-4,119)	(117,12)	(114,14)	(1,43)	(338,2)	(124,2)	(341,3)	(0,4)	(104,2)	(-3,51)	(343,28)	(339,3)	(24,1)	(-137,1)	(28,1)	(-1,1)	
L1D -337>	(336,1)	(114,118)	(117,72)	(-5,4)	(1,1)	(0,2)	(6,1)	(337,1)	(104,5)	(122,0)	(-4,45)	(3,0)	(2,0)	(40,0)	(1,0)	(1,0)	
L1D -336>	(20,1)	(19,4)	(2,1)	(0,10)	(5,2)	(-1,2)	(4,4)	(1,7)	(292,1)	(337,7)	(336,1)	(122,1)	(1,0)	(1,0)	(1,0)	(1,0)	
L1D -335>	(1,15)	(5,2)	(3,9)	(2,2)	(6,4)	(-1,9)	(4,4)	(0,4)	(72,1)	(335,5)	(24,1)	(18,2)	(1,0)	(1,0)	(1,0)	(1,0)	
L1D -334>	(4,6)	(498,1)	(1,8)	(337,1)	(-1,1)	(-5,1)	(335,1)	(-18,1)	(414,1)	(246,1)	(0,5)	(5,1)	(334,6)	(-6,1)	(332,1)	(48,1)	
L1D -333>	(2,4)	(6,12)	(333,2)	(3,8)	(1,15)	(114,3)	(0,7)	(334,1)	(-1,2)	(-6,1)	(-9,1)	(4,1)	(416,1)	(1,0)	(1,0)	(1,0)	
L1D -332>	(1,7)	(330,1)	(4,2)	(0,8)	(178,1)	(332,2)	(354,1)	(333,5)	(54,1)	(-4,1)	(84,1)	(-1,1)	(1,0)	(1,0)	(1,0)	(1,0)	
L1D -331>	(0,5)	(1,18)	(3,7)	(14,1)	(-1,3)	(2,2)	(-2,1)	(4,2)	(144,2)	(-6,1)	(368,1)	(6,1)	(10,1)	(18,1)	(1,0)	(1,0)	
L1D -330>	(0,16)	(331,7)	(108,2)	(423,3)	(333,2)	(4,4)	(-1,3)	(1,4)	(403,2)	(54,3)	(24,1)	(86,4)	(116,1)	(91,1)	(69,2)	(18,1)	
L1D -329>	(0,9)	(1,19)	(3,2)	(64,1)	(6,5)	(2,1)	(61,1)	(4,1)	(77,1)	(91,1)	(56,2)	(106,1)	(-1,1)	(-88,1)	(416,1)	(1,0)	
L1D -328>	(22,66)	(413,0)	(15,63)	(0,0)	(326,0)	(1,0)	(1,0)	(1,0)	(1,0)	(1,0)	(1,0)	(1,0)	(1,0)	(1,0)	(1,0)	(1,0)	
L1D -327>	(1,14)	(-2,1)	(0,11)	(6,4)	(-9,1)	(5,2)	(4,2)	(2,1)	(56,1)	(24,2)	(-6,1)	(328,1)	(89,1)	(332,1)	(416,1)	(18,1)	
L1D -326>	(0,17)	(-1,1)	(1,7)	(329,1)	(75,1)	(112,1)	(-100,1)	(4,2)	(-6,3)	(-86,1)	(146,1)	(292,1)	(2,1)	(1,0)	(1,0)	(1,0)	
L1D -325>	(1,11)	(6,16)	(3,4)	(0,23)	(2,1)	(-20,2)	(116,1)	(24,1)	(385,1)	(364,1)	(-1,2)	(4,1)	(-6,1)	(1,0)	(1,0)	(1,0)	
L1D -324>	(419,4)	(0,24)	(-13,1)	(1,10)	(-22,1)	(323,1)	(19,1)	(52,1)	(-1,1)	(239,1)	(4,1)	(26,1)	(3,1)	(324,1)	(1,0)	(1,0)	
L1D -323>	(1,15)	(0,14)	(3,6)	(-1,6)	(146,2)	(100,1)	(360,1)	(4,1)	(6,2)	(344,1)	(-90,1)	(1,0)	(1,0)	(1,0)	(1,0)	(1,0)	
L1D -322>	(146,1)	(0,18)	(1,7)	(2,2)	(322,4)	(325,3)	(4,5)	(289,1)	(311,1)	(-1,1)	(182,1)	(28,1)	(414,1)	(419,2)	(69,3)	(234,1)	
L1D -321>	(1,8)	(2,4)	(0,15)	(91,1)	(-6,2)	(146,2)	(3,3)	(6,9)	(325,1)	(-5,1)	(-4,1)	(-48,1)	(30,1)	(-1,1)	(124,1)	(420,1)	
L1D -320>	(4,5)	(1,10)	(0,36)	(19,3)	(318,1)	(323,1)	(335,1)	(320,4)	(-1,2)	(-9,1)	(241,2)	(61,1)	(404,1)	(360,1)	(26,1)	(325,1)	
L1D -319>	(0,13)	(1,16)	(3,6)	(6,7)	(56,2)	(5,1)	(24,1)	(-6,1)	(-1,4)	(26,1)	(18,2)	(146,1)	(4,1)	(1,0)	(1,0)	(1,0)	
L1D -318>	(2,2)	(4,7)	(1,6)	(146,1)	(-65,1)	(321,3)	(0,17)	(-1,2)	(-6,4)	(156,1)	(160,1)	(318,4)	(154,1)	(-4,1)	(1,0)	(1,0)	
L1D -317>	(1,14)	(6,20)	(4,3)	(0,14)	(5,2)	(146,2)	(348,1)	(297,1)	(12,1)	(-6,2)	(1,0)	(1,0)	(1,0)	(1,0)	(1,0)	(1,0)	
L1D -316>	(1,10)	(0,21)	(315,1)	(6,2)	(314,1)	(19,1)	(5,3)	(3,2)	(372,1)	(322,1)	(4,1)	(316,1)	(102,1)	(1,0)	(1,0)	(1,0)	
L1D -315>	(0,27)	(1,16)	(-1,4)	(6,14)	(3,6)	(4,4)	(317,1)	(26,2)	(384,1)	(296,1)	(292,1)	(18,1)	(1,0)	(1,0)	(1,0)	(1,0)	
L1D -314>	(0,12)	(290,1)	(53,1)	(100,1)	(4,2)	(1,9)	(317,4)	(-6,1)	(-13,1)	(61,1)	(-136,1)	(5,1)	(-16,1)	(2,1)	(1,0)	(1,0)	
L1D -313>	(26,7)	(0,28)	(1,11)	(56,2)	(6,16)	(18,1)	(5,1)	(-4,1)	(-1,1)	(-6,2)	(318,1)	(-32,1)	(24,1)	(1,0)	(1,0)	(1,0)	
L1D -312>	(20,1)	(19,1)	(0,13)	(315,2)	(98,2)	(4,4)	(1,9)	(313,1)	(407,2)	(-2,1)	(414,1)	(-6,1)	(61,1)	(310,1)	(5,1)	(1,0)	
L1D -311>	(130,1)	(6,16)	(0,22)	(1,10)	(19,1)	(24,2)	(-1,1)	(56,2)	(311,2)	(-6,1)	(258,1)	(26,3)	(4,1)	(99,1)	(18,1)	(1,0)	
L1D -310>	(0,17)	(313,3)	(1,10)	(4,4)	(5,1)	(10,1)	(-6,3)	(416,1)	(28,1)	(-154,1)	(1,0)	(1,0)	(1,0)	(1,0)	(1,0)	(1,0)	
L1D -309>	(6,39)	(1,9)	(0,21)	(310,1)	(90,1)	(4,2)	(56,4)	(10,1)	(24,1)	(-1,2)	(294,1)	(3,1)	(146,2)	(280,1)	(-6,2)	(34,1)	
L1D -308>	(1,6)	(0,34)	(313,1)	(146,3)	(14,1)	(-9,2)	(4,1)	(308,3)	(6,2)	(307,1)	(327,1)	(46,1)	(5,1)	(1,0)	(1,0)	(1,0)	
L1D -307>	(76,1)	(0,11)	(1,9)	(4,8)	(18,2)	(-184,1)	(-130,2)	(6,13)	(10,1)	(311,1)	(26,4)	(5,2)	(284,1)	(3,1)	(120,1)	(30,1)	
L1D -306>	(0,71)	(411,13)	(306,2)	(70,0)	(1,0)	(1,0)	(1,0)	(1,0)	(1,0)	(1,0)	(1,0)	(1,0)	(1,0)	(1,0)	(1,0)	(1,0)	
L1D -305>	(12,2)	(6,30)	(1,9)	(0,9)	(304,2)	(-20,1)	(146,2)	(321,9)	(-6,2)	(290,2)	(24,2)	(43,1)	(-1,1)	(5,1)	(4,1)	(416,1)	
L1D -304>	(1,9)	(0,20)	(4,5)	(3,3)	(2,2)	(307,2)	(-1,1)	(302,3)	(146,3)	(57,1)	(384,1)	(416,1)	(6,1)	(1,0)	(1,0)	(1,0)	
L1D -303>	(3,3)	(6,9)	(0,15)	(-1,8)	(1,5)	(4,2)	(26,2)	(2,1)	(303,2)	(24,2)	(-6,1)	(284,2)	(18,1)	(1,0)	(1,0)	(1,0)	
L1D -302>	(305,7)	(0,24)	(3,1)	(19,6)	(4,6)	(-2,1)	(1,7)	(20,1)	(-1,1)	(-6,4)	(300,1)	(258,1)	(6,1)	(-118,1)	(1,0)	(1,0)	
L1D -301>	(6,33)	(1,10)	(5,3)	(2,1)	(78,1)	(-118,1)	(305,1)	(300,2)	(146,1)	(0,15)	(24,2)	(26,4)	(286,3)	(311,1)	(92,1)	(-6,3)	
L1D -300>	(5,3)	(0,22)	(82,2)	(316,1)	(-6,3)	(298,1)	(-1,1)	(1,6)	(305,1)	(-18,1)	(232,1)	(134,1)	(6,2)	(299,3)	(17,1)	(1,0)	
L1D -299>	(19,1)	(5,1)	(321,127)	(6,10)	(4,4)	(1,11)	(0,14)	(-6,1)	(18,2)	(-1,2)	(95,1)	(82,1)	(298,1)	(-2,1)	(300,1)	(17,1)	
L1D -298>	(1,8)	(297,1)	(301,3)	(4,2)	(0,15)	(300,1)	(3,2)	(-9,2)	(296,6)	(-6,2)	(19,1)	(270,1)	(260,1)	(278,1)	(303,2)	(298,1)	
L1D -297>	(6,48)	(278,3)	(26,6)	(1,10)	(0,21)	(19,7)	(24,8)	(296,2)	(7,1)	(298,1)	(-4,2)	(-20,1)	(-6,2)	(80,1)	(290,2)	(274,3)	
L1D -296>	(0,35)	(2,11)	(294,1)	(1,7)	(19,10)	(-9,4)	(299,2)	(20,6)	(4,4)	(298,1)	(297,1)	(90,1)	(295,4)	(301,2)	(6,1)	(3,1)	
L1D -295>	(14,15)	(2,9)	(6,19)	(280,2)	(0,21)	(1,10)	(56,2)	(296,20)	(258,1)	(146,2)	(294,2)	(26,11)	(226,1)	(24,2)	(-6,1)	(34,3)	
L1D -294>	(0,16)	(1,5)	(297,3)	(3,1)	(5,4)	(4,8)	(2,4)	(26,1)	(20,1)	(19,5)	(376,1)	(292,2)	(-6,5)	(406,1)	(299,2)	(174,1)	
L1D -293>	(1,13)	(6,40)	(104,1)	(0,14)	(5,1)	(14,1)	(19,4)	(24,14)	(10,1)	(-2,1)	(315,2)	(286,5)	(26,2)	(264,1)	(122,1)	(-6,3)	
L1D -292>	(-1,97)	(0,15)	(2,3)	(297,2)	(19,4)	(1,11)	(-106,1)	(-38,1)	(20,2)	(290,2)	(292,2)	(274,1)	(291,2)	(6,4)	(280,1)	(146,1)	
L1D -291>	(6,15)	(291,7)	(0,21)	(1,16)	(19,5)	(24,9)	(20,3)	(4,4)	(18,1)	(26,2)	(254,4)	(293,1)	(313,1)	(-126,1)	(2,1)	(250,1)	
L1D -290>	(290,8)	(19,7)	(0,19)	(2,6)	(-1,1)	(1,12)	(293,6)	(272,1)	(288,6)	(324,1)	(13,1)	(20,2)	(295,7)	(289,3)	(6,1)	(256,1)	
L1D -289>	(0,19)	(260,1)	(24,1)	(6,37)	(26,6)	(5,1)	(1,11)	(68,1)	(288,4)	(4,2)	(289,2)	(-4,2)	(80,1)	(-20,1)	(2,2)	(-6,3)	
L1D -288>	(2,7)	(0,21)	(4,9)	(1,10)	(286,8)	(264,1)	(291,1)	(327,1)	(20,2)	(274,1)	(-1,1)	(12,1)	(46,1)	(-18,1)	(288,4)	(293,5)	
L1D -287>	(6,13)	(250,4)	(20,9)	(1,8)	(287,2)	(0,14)	(2,3)	(19,2)	(24,6)	(-2,3)	(26,13)	(246,1)	(41,1)	(-6,1)	(258,2)	(40,2)	
L1D -286>	(291,3)	(0,20)	(289,9)	(20,5)	(284,4)	(1,7)	(19,4)	(248,1)	(196,1)	(-6,7)	(2,6)	(287,1)	(4,2)	(26,1)	(285,3)	(265,1)	
L1D -285>	(-6,3)	(19,2)	(24,10)	(256,1)	(6,36)	(-20,2)	(3,8)	(-5,2)	(152,1)	(5,1)	(1,9)	(0,23)	(12,1)	(4,1)	(284,2)	(13,2)	
L1D -284>	(20,3)	(19,8)	(0,15)	(282,11)	(-6,3)	(4,3)	(1,15)	(2,6)	(6,2)	(283,5)	(24,1)	(241,1)	(289,5)	(-122,1)	(14,2)	(5,3)	
L1D -283>	(234,2)	(6,16)	(0,18)	(26,6)	(1,6)	(4,2)	(-1,2)	(42,1)	(279,2)	(285,1)	(12,3)	(20,3)	(19,1)	(272,2)	(32,3)	(252,1)	
L1D -282>	(0,18)	(19,34)	(2,13)	(281,16)	(26,2)	(4,4)	(20,6)	(1,5)	(-6,4)	(-12,2)	(285,3)	(262,4)	(287,2)	(14,1)	(294,1)	(32,1)	
L1D -281>	(1,12)	(0,22)	(24,7)	(6,32)	(262,4)	(280,3)	(19,2)	(416,1)	(-4,2)	(3,1)	(2,1)	(-20,1)	(282,4)	(-6,2)	(254,1)	(29,1)	
L1D -280>	(286,1)	(283,3)	(4,15)	(0,20)	(300,1)	(278,8)	(-1,2)	(1,6)	(2,2)	(-6,4)	(289,1)	(285,7)	(10,1)	(238,1)	(20,1)	(6,1)	
L1D -279>	(0,12)	(6,9)	(-20,3)	(1,13)	(16,4)	(24,21)	(26,16)	(19,7)	(8,2)	(32,2)	(35,1)	(12,5)	(2,1)	(256,5)	(272,3)	(238,4)	
L1D -278>	(19,32)	(281,8)	(283,7)	(2,17)	(0,22)	(14,2)	(20,12)	(277,16)	(1,4)	(278,1)	(5,1)	(280,1)	(250,1)	(-6,7)	(-1,1)	(276,3)	
L1D -277>	(273,118)	(0,46)	(236,0)	(248,1)	(80,0)	(19,0)	(6,0)	(24,0)	(-1,0)	(1,0)	(1,0)	(1,0)	(1,0)	(1,0)	(1,0)	(1,0)	
L1D -276>	(19,31)	(4,14)	(0,30)	(2,41)	(-18,2)	(20,8)	(247,5)	(6,5)	(276,4)	(1,7)	(281,11)	(275,7)	(28,4)	(402,2)	(266,1)	(146,2)	
L1D -275>	(24,10)	(275,17)	(2,18)	(8,41)	(26,8)	(0,29)	(6,9)	(-20,3)	(276,27)	(256,5)	(1,11)	(25,3)	(28,17)	(268,1)	(18,2)	(19,5)	
L1D -274>	(279,6)	(-18,2)	(19,5)	(0,19)	(1,6)	(-6,4)	(6,3)	(4,6)	(40,1)	(277,7)	(14,1)	(20,2)	(2,4)	(272,5)	(-1,1)	(-20,2)	
L1D -273>	(277,100)	(6,6)	(420,6)	(1,2)	(263,3)	(271,2)	(412,5)	(0,8)	(266,1)	(236,2)	(411,1)	(-6,2)	(24,1)	(19,1)	(1,0)	(1,0)	
L1D -272>	(270,9)	(1,12)	(272,5)	(0,21)	(234,1)	(2,2)	(275,1)	(20,1)	(4,1)	(277,22)	(-84,1)	(244,2)	(19,2)	(240,1)	(52,2)	(8,1)	
L1D -271>	(270,3)	(0,31)	(1,10)	(26,11)	(19,3)	(24,13)	(6,5)	(271,14)	(300,1)	(2,3)	(256,6)	(4,1)	(-6,1)	(264,2)	(234,9)	(242,5)	
L1D -270>	(269,8)	(19,10)	(14,2)	(0,11)	(1,8)	(2,16)	(273,6)	(20,9)	(270,2)	(-6,14)	(275,1)	(60,1)	(-12,2)	(4,5)	(-1,2)	(295,1)	
L1D -269>	(3,119)	(13,13)	(26,6)	(268,8)	(29,2)	(228,1)	(1,1)	(6,4)	(269,3)	(-138,1)	(0,6)	(19,0)	(254,2)	(-146,0)	(232,0)	(-6,2)	
L1D -268>	(2,33)	(267,22)	(19,76)	(20,7)	(5,8)	(4,8)	(0,23)	(234,1)	(-7,8)	(3,3)	(268,5)	(1,14)	(207,4)	(14,4)	(273,4)	(275,6)	
L1D -267>	(19,3)	(420,74)	(1,5)	(412,68)	(419,5)	(411,9)	(263,23)	(-28,9)	(6,6)	(234,0)	(0,10)	(266,1)	(24,6)	(-1,0)	(5,1)	(2,2)	
L1D -266>	(4,47)	(271,3)	(19,76)	(0,23)	(1,9)	(293,1)	(266,2)	(227,3)	(281,1)	(-6,7)	(269,7)	(20,5)	(2,10)	(289,2)	(270,2)	(-14,1)	
L1D -265>	(-20,2)	(6,20)	(19,7)	(24,15)	(1,29)	(0,8)	(26,2)	(4,2)	(265,6)	(5,3)	(264,1)	(-4,1)	(-6,3)	(240,1)	(20,2)	(228,3)	
L1D -264>	(12,7)	(-18,1)	(20,7)	(19,5)	(-6,3)	(2,15)	(269,19)	(4,54)	(1,9)	(267,3)	(0,25)	(236,6)	(-12,2)	(234,5)	(14,5)	(262,8)	
L1D -263>	(1,27)	(24,49)	(19,14)	(263,9)	(0,50)	(234,15)	(6,6)	(26,5)	(146,1)	(4,1)	(3,2)	(258,1)	(7,1)	(262,1)	(226,6)	(17,1)	
L1D -262>	(-12,3)	(4,7)	(19,8)	(0,18)	(1,12)	(261,1)	(20,11)	(256,3)	(-43,11)	(263,2)	(267,11)	(265,10)	(2,24)	(-6,11)	(6,3)	(262,5)	
L1D -261>	(26,89)	(232,1)	(10,13)	(6,18)	(260,4)	(-6,5)	(261,4)	(24,20)	(3,8)	(1,12)	(19,9)	(0,21)	(254,14)	(-20,1)	(-5,1)	(29,2)	
L1D -260>	(2,15)	(4,4)	(1,12)	(146,1)	(0,19)	(19,4)	(258,8)	(260,7)	(20,6)	(-6,9)	(261,3)	(6,3)	(248,1)	(274,1)	(55,1)	(14,1)	
L1D -259>	(0,29)	(259,5)	(220,6)	(13,3)	(19,15)	(24,6)	(36,1)	(1,25)	(2,2)	(3,11)	(22,1)	(128,1)	(248,3)	(255,1)	(6,4)	(17,2)	
L1D -258>	(-18,10)	(219,12)	(0,25)	(2,8)	(186,2)	(-20,1)	(263,7)	(261,6)	(146,1)	(1,11)	(20,2)	(-6,9)	(277,1)	(10,5)	(4,4)	(41,1)	
L1D -257>	(0,79)	(98,121)	(-1,0)	(60,121)	(99,5)	(-6,1)	(4,0)	(257,1)	(254,0)	(1,0)	(24,1)	(6,0)	(26,1)	(19,0)	(1,0)	(1,0)	
L1D -256>	(1,72)	(251,34)	(0,9)	(255,6)	(261,7)	(239,6)	(2,10)	(249,1)	(254,3)	(4,1)	(226,1)	(-14,1)	(22,1)	(-6,6)	(6,1)	(-18,2)	
L1D -255>	(0,43)	(84,46)	(250,85)	(24,2)	(234,0)	(255,0)	(27,0)	(26,2)	(226,2)	(253,0)	(-9,1)	(218,0)	(19,2)	(1,0)	(1,0)	(1,0)	
L1D -254>	(254,11)	(256,2)	(-24,2)	(-20,8)	(0,27)	(19,14)	(2,50)	(-22,1)	(257,10)	(1,13)	(20,6)	(-6,12)	(265,36)	(-12,4)	(4,5)	(14,4)	
L1D -253>	(0,37)	(252,2)	(253,19)	(1,11)	(6,16)	(-6,6)	(26,5)	(24,11)	(3,8)	(19,3)	(146,2)	(-5,1)	(5,1)	(-22,27)	(238,1)	(242,1)	
L1D -252>	(-6,12)	(272,5)	(1,90)	(250,1)	(20,5)	(19,24)	(-3,6)	(252,6)	(2,12)	(251,8)	(255,1)	(-12,4)	(0,27)	(242,3)	(108,1)	(4,4)	
L1D -251>	(1,90)	(240,1)	(18,0)	(3,0)	(6,0)	(2,0)	(251,1)	(20,0)	(0,2)	(19,0)	(1,0)	(1,0)	(1,0)	(1,0)	(1,0)	(1,0)	
L1D -250>	(-18,6)	(-6,15)	(2,8)	(0,8)	(84,94)	(211,3)	(27,5)	(256,1)	(250,19)	(19,2)	(253,2)	(1,5)	(4,6)	(252,2)	(243,1)	(278,1)	
L1D -249>	(0,31)	(6,7)	(24,36)	(1,24)	(249,13)	(19,6)	(26,14)	(278,1)	(-20,2)	(276,1)	(248,3)	(2,1)	(44,4)	(-6,3)	(-36,16)	(-112,1)	
L1D -248>	(2,26)	(14,10)	(4,13)	(-6,31)	(0,39)	(19,31)	(1,7)	(20,12)	(246,1)	(-18,22)	(289,2)	(-37,22)	(277,5)	(3,5)	(247,4)	(253,8)	
L1D -247>	(247,18)	(26,71)	(0,11)	(1,13)	(22,2)	(226,5)	(24,2)	(2,1)	(44,2)	(3,1)	(-6,3)	(19,1)	(246,1)	(-90,1)	(257,1)	(243,1)	
L1D -246>	(-150,1)	(19,58)	(245,31)	(13,65)	(-6,23)	(225,19)	(2,21)	(1,6)	(0,15)	(249,4)	(20,8)	(248,1)	(4,7)	(12,2)	(5,1)	(146,1)	
L1D -245>	(13,121)	(-6,3)	(6,0)	(5,1)	(24,4)	(250,20)	(0,5)	(243,0)	(19,0)	(-100,0)	(-9,0)	(28,0)	(-254,0)	(245,1)	(1,1)	(1,0)	
L1D -244>	(19,9)	(20,6)	(0,23)	(4,17)	(2,6)	(1,7)	(287,2)	(-6,8)	(283,1)	(245,2)	(298,2)	(-20,5)	(-18,6)	(146,6)	(242,2)	(-12,1)	
L1D -243>	(1,1)	(3,64)	(253,0)	(13,7)	(146,0)	(18,0)	(4,6)	(19,0)	(204,0)	(2,0)	(0,6)	(242,3)	(241,0)	(6,0)	(36,0)	(24,1)	
L1D -242>	(0,21)	(2,24)	(235,12)	(241,4)	(225,3)	(146,3)	(294,2)	(-18,5)	(245,6)	(1,8)	(203,4)	(4,2)	(20,2)	(278,1)	(-6,17)	(-20,3)	
L1D -241>	(26,105)	(241,50)	(19,7)	(24,50)	(1,17)	(6,6)	(0,17)	(122,1)	(4,1)	(-20,2)	(10,1)	(240,3)	(-4,2)	(239,1)	(-6,3)	(5,1)	
L1D -240>	(14,4)	(146,2)	(2,17)	(0,30)	(20,4)	(1,7)	(19,12)	(6,4)	(-12,3)	(-88,1)	(240,10)	(-6,18)	(4,3)	(60,1)	(238,2)	(-18,1)	
L1D -239>	(239,89)	(244,14)	(1,11)	(29,5)	(238,4)	(26,5)	(-256,2)	(5,6)	(0,16)	(2,3)	(-96,1)	(202,2)	(19,14)	(-6,1)	(17,1)	(70,1)	
L1D -238>	(-6,9)	(0,18)	(6,3)	(-18,3)	(2,20)	(3,4)	(258,1)	(243,2)	(241,7)	(20,2)	(14,3)	(12,80)	(238,13)	(-12,2)	(19,5)	(231,12)	
L1D -237>	(2,2)	(-20,1)	(0,52)	(1,11)	(6,9)	(-6,6)	(24,8)	(237,6)	(-2,1)	(29,2)	(4,3)	(3,2)	(238,4)	(390,1)	(-9,1)	(222,2)	
L1D -236>	(2,14)	(-6,22)	(4,1)	(-20,3)	(-18,17)	(0,25)	(19,16)	(20,3)	(234,1)	(238,3)	(270,1)	(1,4)	(237,1)	(6,4)	(18,1)	(292,1)	
L1D -235>	(2,14)	(16,5)	(5,2)	(0,19)	(24,17)	(1,18)	(235,24)	(35,1)	(19,2)	(240,2)	(239,2)	(140,3)	(237,1)	(382,1)	(374,3)	(-5,1)	
L1D -234>	(1,17)	(-18,12)	(0,30)	(20,3)	(246,2)	(2,5)	(19,13)	(4,11)	(195,2)	(277,2)	(-6,49)	(6,5)	(237,3)	(-126,1)	(28,1)	(-114,1)	
L1D -233>	(26,27)	(233,58)	(24,60)	(1,34)	(0,34)	(6,11)	(229,7)	(2,5)	(-6,2)	(224,1)	(12,1)	(237,2)	(-138,1)	(240,4)	(234,1)	(-154,1)	
L1D -232>	(239,5)	(-20,8)	(2,18)	(1,7)	(-6,17)	(14,6)	(0,28)	(232,6)	(202,9)	(19,19)	(237,1)	(261,4)	(233,4)	(207,2)	(-12,10)	(204,12)	
L1D -231>	(1,13)	(0,32)	(233,4)	(2,3)	(231,11)	(-20,2)	(24,3)	(202,44)	(229,2)	(238,1)	(6,1)	(19,13)	(78,1)	(-6,4)	(219,5)	(277,1)	
L1D -230>	(-20,7)	(-18,19)	(0,20)	(1,16)	(207,8)	(2,27)	(-6,17)	(233,6)	(223,6)	(4,3)	(229,13)	(3,3)	(20,3)	(237,1)	(256,1)	(320,1)	
L1D -229>	(222,2)	(26,9)	(1,9)	(-6,3)	(0,68)	(2,2)	(-9,47)	(6,3)	(228,1)	(374,12)	(-154,1)	(19,1)	(24,5)	(5,1)	(-3,1)	(29,0)	
L1D -228>	(6,6)	(0,40)	(-6,36)	(1,13)	(226,2)	(19,5)	(256,3)	(2,5)	(20,2)	(-20,13)	(-18,26)	(235,4)	(52,1)	(223,14)	(3,1)	(231,1)	
L1D -227>	(1,23)	(227,32)	(234,1)	(26,1)	(0,21)	(-20,1)	(2,2)	(24,4)	(6,7)	(188,14)	(229,1)	(4,1)	(296,1)	(-5,1)	(5,2)	(19,9)	
L1D -226>	(228,1)	(0,9)	(-3,82)	(2,1)	(1,4)	(187,19)	(236,1)	(233,1)	(-164,0)	(-6,1)	(28,1)	(4,2)	(226,0)	(-11,0)	(280,0)	(272,0)	
L1D -225>	(26,15)	(225,120)	(24,49)	(19,15)	(1,19)	(0,23)	(226,2)	(-6,2)	(-20,7)	(221,3)	(5,2)	(6,4)	(308,1)	(-128,1)	(4,1)	(-74,1)	
L1D -224>	(19,51)	(2,18)	(0,27)	(20,9)	(223,11)	(207,4)	(224,30)	(-20,8)	(1,8)	(212,1)	(-6,5)	(262,2)	(-4,7)	(28,1)	(280,3)	(3,1)	
L1D -223>	(223,38)	(225,6)	(1,15)	(2,3)	(-27,21)	(0,24)	(222,1)	(-20,9)	(14,1)	(221,1)	(3,1)	(6,1)	(20,1)	(19,4)	(233,1)	(-6,7)	
L1D -222>	(253,2)	(248,2)	(-18,9)	(0,14)	(2,19)	(1,7)	(225,4)	(-20,15)	(256,2)	(222,8)	(14,5)	(4,7)	(-6,31)	(19,2)	(274,1)	(264,1)	
L1D -221>	(-6,4)	(2,16)	(221,23)	(5,14)	(228,3)	(29,6)	(1,21)	(6,4)	(222,3)	(-5,1)	(0,27)	(-20,2)	(3,4)	(220,3)	(248,1)	(219,9)	
L1D -220>	(0,40)	(-6,22)	(20,2)	(227,7)	(1,7)	(-18,2)	(220,3)	(234,1)	(221,7)	(-72,1)	(28,5)	(240,1)	(-20,8)	(-168,1)	(222,2)	(19,4)	
L1D -219>	(6,5)	(3,11)	(219,68)	(0,12)	(19,9)	(1,11)	(434,2)	(-20,1)	(2,1)	(-6,1)	(4,1)	(24,1)	(-1,0)	(13,1)	(264,0)	(237,0)	
L1D -218>	(246,2)	(-18,7)	(0,34)	(2,41)	(117,4)	(416,3)	(221,3)	(20,6)	(218,4)	(19,2)	(-20,3)	(4,7)	(6,3)	(1,12)	(-6,25)	(210,1)	
L1D -217>	(-20,4)	(26,18)	(224,6)	(0,25)	(1,13)	(217,6)	(24,3)	(262,1)	(6,3)	(-6,3)	(19,1)	(29,8)	(216,2)	(-14,1)	(3,2)	(-79,1)	
L1D -216>	(216,14)	(20,19)	(2,47)	(4,15)	(1,12)	(19,4)	(0,37)	(223,10)	(-20,3)	(-6,7)	(28,5)	(215,1)	(245,13)	(-17,5)	(14,10)	(-18,4)	
L1D -215>	(3,5)	(0,35)	(2,12)	(5,12)	(1,9)	(215,8)	(19,6)	(24,3)	(-6,5)	(-20,3)	(214,1)	(-1,1)	(6,1)	(4,1)	(316,2)	(213,1)	
L1D -214>	(248,2)	(-12,3)	(3,5)	(0,45)	(217,4)	(4,4)	(-6,14)	(219,2)	(186,1)	(-1,7)	(214,4)	(1,7)	(20,1)	(2,3)	(-20,4)	(6,3)	
L1D -213>	(0,39)	(-6,3)	(213,19)	(1,12)	(212,2)	(-5,1)	(29,1)	(211,2)	(5,2)	(6,3)	(214,3)	(-80,1)	(4,2)	(220,3)	(73,1)	(-146,1)	
L1D -212>	(-6,23)	(0,51)	(248,3)	(-1,6)	(3,6)	(-20,2)	(219,6)	(1,16)	(245,1)	(2,1)	(-142,1)	(-18,5)	(264,1)	(-108,1)	(253,4)	(4,1)	
L1D -211>	(211,67)	(1,16)	(5,9)	(6,23)	(212,10)	(0,35)	(146,1)	(29,2)	(-1,1)	(3,3)	(-20,1)	(215,1)	(24,2)	(198,1)	(16,1)	(179,2)	
L1D -210>	(0,63)	(248,1)	(213,1)	(3,3)	(6,3)	(1,15)	(-12,1)	(210,9)	(-1,2)	(146,1)	(-20,1)	(290,1)	(-18,4)	(-73,1)	(208,1)	(-6,16)	
L1D -209>	(26,84)	(0,8)	(29,2)	(246,2)	(19,1)	(24,4)	(1,4)	(216,1)	(209,1)	(-6,2)	(6,2)	(248,1)	(110,0)	(210,4)	(213,0)	(-4,0)	
L1D -208>	(1,12)	(19,31)	(209,6)	(2,5)	(28,5)	(-6,2)	(0,40)	(206,3)	(20,6)	(186,2)	(26,1)	(207,5)	(6,3)	(196,1)	(117,1)	(213,1)	
L1D -207>	(207,1)	(209,0)	(0,84)	(1,0)	(2,0)	(6,0)	(322,0)	(-2,0)	(26,0)	(4,0)	(20,0)	(-1,0)	(19,1)	(24,0)	(195,0)	(1,0)	
L1D -206>	(0,95)	(211,0)	(2,0)	(-14,0)	(-6,0)	(4,1)	(204,0)	(-18,0)	(1,0)	(1,0)	(1,0)	(1,0)	(1,0)	(1,0)	(1,0)	(1,0)	
L1D -205>	(0,123)	(203,1)	(-6,1)	(6,0)	(29,0)	(1,1)	(242,1)	(24,0)	(1,0)	(1,0)	(1,0)	(1,0)	(1,0)	(1,0)	(1,0)	(1,0)	
L1D -204>	(0,76)	(233,7)	(211,9)	(-18,4)	(-6,12)	(249,2)	(248,3)	(4,1)	(-11,1)	(2,1)	(234,1)	(6,1)	(1,9)	(207,1)	(-178,1)	(464,2)	
L1D -203>	(203,53)	(6,12)	(1,8)	(0,29)	(-20,1)	(-6,6)	(205,1)	(2,2)	(5,1)	(204,2)	(24,1)	(116,1)	(330,1)	(1,0)	(1,0)	(1,0)	
L1D -202>	(0,36)	(204,1)	(1,7)	(248,4)	(117,3)	(-6,11)	(18,4)	(202,1)	(41,1)	(256,4)	(366,1)	(281,1)	(416,1)	(-158,1)	(50,1)	(261,1)	
L1D -201>	(0,29)	(1,10)	(201,2)	(330,1)	(6,3)	(318,1)	(3,1)	(29,5)	(10,1)	(208,1)	(240,2)	(366,1)	(98,1)	(206,1)	(200,1)	(2,1)	
L1D -200>	(134,1)	(0,90)	(3,7)	(1,11)	(28,1)	(-4,1)	(-136,1)	(-1,9)	(324,1)	(37,1)	(188,3)	(84,1)	(34,1)	(207,5)	(186,1)	(24,2)	
L1D -199>	(0,41)	(201,2)	(187,8)	(1,9)	(132,1)	(2,3)	(318,1)	(4,1)	(-128,1)	(5,2)	(204,1)	(227,1)	(6,1)	(-48,1)	(-6,2)	(188,3)	
L1D -198>	(-6,12)	(-18,35)	(0,57)	(1,14)	(4,7)	(-14,2)	(-243,1)	(-20,1)	(232,2)	(201,2)	(-2,1)	(-36,1)	(28,1)	(94,1)	(238,1)	(205,2)	
L1D -197>	(1,20)	(3,27)	(0,64)	(-6,1)	(-1,2)	(14,1)	(225,1)	(6,2)	(13,2)	(18,1)	(196,1)	(134,1)	(218,1)	(226,1)	(70,1)	(208,1)	
L1D -196>	(225,2)	(0,74)	(1,9)	(207,2)	(226,3)	(278,1)	(-137,1)	(232,1)	(196,2)	(-6,28)	(-14,3)	(-1,1)	(20,1)	(171,1)	(-18,46)	(237,1)	
L1D -195>	(0,44)	(1,19)	(195,22)	(-20,4)	(2,1)	(130,1)	(-1,1)	(209,1)	(-6,3)	(-262,1)	(6,2)	(1,0)	(1,0)	(1,0)	(1,0)	(1,0)	
L1D -194>	(0,68)	(1,11)	(6,1)	(197,1)	(-1,1)	(192,2)	(191,1)	(194,4)	(68,1)	(-4,1)	(199,1)	(207,1)	(166,1)	(4,2)	(1,0)	(1,0)	
L1D -193>	(0,47)	(1,28)	(3,5)	(193,4)	(6,5)	(229,1)	(29,1)	(276,1)	(194,4)	(248,2)	(30,1)	(216,3)	(182,1)	(50,1)	(192,2)	(-1,1)	
L1D -192>	(0,79)	(306,1)	(1,8)	(172,1)	(117,3)	(-28,1)	(146,1)	(-18,1)	(-4,1)	(68,1)	(12,1)	(416,1)	(328,1)	(-12,1)	(-2,1)	(193,7)	
L1D -191>	(6,11)	(0,50)	(1,13)	(-20,1)	(2,4)	(191,3)	(36,1)	(-128,1)	(-124,1)	(24,3)	(5,1)	(-284,1)	(-6,1)	(126,1)	(1,0)	(1,0)	
L1D -190>	(0,42)	(245,3)	(-20,1)	(1,13)	(146,1)	(193,1)	(-28,1)	(2,1)	(416,1)	(166,1)	(-207,1)	(188,1)	(1,0)	(1,0)	(1,0)	(1,0)	
L1D -189>	(1,15)	(0,40)	(191,6)	(296,1)	(6,13)	(216,1)	(-1,3)	(132,1)	(24,4)	(201,2)	(180,1)	(190,1)	(2,1)	(-6,2)	(188,1)	(234,1)	
L1D -188>	(0,41)	(28,3)	(-20,7)	(-18,4)	(1,5)	(245,1)	(232,1)	(240,1)	(211,11)	(243,4)	(328,1)	(348,1)	(-11,2)	(249,4)	(194,1)	(-4,1)	
L1D -187>	(187,126)	(6,6)	(0,27)	(1,12)	(100,1)	(148,5)	(-6,7)	(188,1)	(192,1)	(115,1)	(-11,1)	(1,0)	(1,0)	(1,0)	(1,0)	(1,0)	
L1D -186>	(0,44)	(1,18)	(85,1)	(220,1)	(-18,1)	(-112,1)	(-20,1)	(4,1)	(388,1)	(191,2)	(-188,1)	(238,1)	(-6,1)	(117,1)	(-142,1)	(232,1)	
L1D -185>	(0,33)	(1,18)	(6,1)	(3,1)	(212,1)	(4,1)	(12,1)	(-102,1)	(2,2)	(-1,1)	(28,1)	(185,1)	(1,0)	(1,0)	(1,0)	(1,0)	
L1D -184>	(28,9)	(1,7)	(0,52)	(2,3)	(146,11)	(20,3)	(-9,2)	(456,1)	(12,1)	(184,2)	(24,2)	(6,2)	(77,1)	(120,1)	(416,1)	(156,1)	
L1D -183>	(0,46)	(1,21)	(2,28)	(146,1)	(-9,7)	(4,2)	(-122,1)	(183,3)	(-128,1)	(3,1)	(-90,1)	(-286,1)	(-14,1)	(150,1)	(86,1)	(1,0)	
L1D -182>	(-11,1)	(0,41)	(1,18)	(-18,3)	(-9,1)	(185,1)	(-1,1)	(-195,1)	(4,3)	(138,1)	(6,1)	(222,1)	(176,1)	(28,1)	(66,1)	(5,1)	
L1D -181>	(0,49)	(1,25)	(5,5)	(78,2)	(142,2)	(-6,1)	(4,1)	(18,2)	(202,1)	(-5,1)	(-62,1)	(2,1)	(104,1)	(-8,1)	(-2,1)	(-38,1)	
L1D -180>	(0,48)	(34,58)	(117,2)	(-3,9)	(-11,1)	(48,1)	(1,11)	(-18,4)	(50,62)	(70,1)	(180,2)	(-220,1)	(185,1)	(28,1)	(3,1)	(-2,1)	
L1D -179>	(1,28)	(34,29)	(0,29)	(114,1)	(6,3)	(179,1)	(24,1)	(-128,1)	(140,1)	(28,1)	(18,1)	(298,1)	(98,1)	(414,1)	(2,1)	(-122,1)	
L1D -178>	(0,38)	(1,18)	(-1,2)	(119,1)	(5,1)	(226,1)	(-20,1)	(178,1)	(179,1)	(250,1)	(-210,1)	(1,0)	(1,0)	(1,0)	(1,0)	(1,0)	
L1D -177>	(1,64)	(171,53)	(2,3)	(177,38)	(0,25)	(-34,1)	(3,22)	(138,2)	(174,1)	(90,3)	(-137,0)	(-19,0)	(182,4)	(109,0)	(418,0)	(28,0)	
L1D -176>	(0,36)	(177,64)	(-1,1)	(171,4)	(1,15)	(-18,1)	(170,3)	(83,1)	(-2,1)	(366,1)	(-4,1)	(328,1)	(-5,1)	(-11,1)	(140,1)	(172,1)	
L1D -175>	(170,65)	(0,55)	(1,4)	(-168,31)	(171,22)	(5,0)	(6,4)	(460,0)	(13,0)	(3,1)	(136,0)	(-6,1)	(-32,0)	(-53,0)	(90,0)	(-128,0)	
L1D -174>	(1,6)	(28,17)	(168,95)	(-3,58)	(338,16)	(0,11)	(343,51)	(50,56)	(87,19)	(115,5)	(100,1)	(56,0)	(1,0)	(1,0)	(1,0)	(1,0)	
L1D -173>	(-1,47)	(28,81)	(-6,1)	(488,0)	(0,3)	(178,0)	(114,12)	(86,20)	(1,0)	(1,0)	(1,0)	(1,0)	(1,0)	(1,0)	(1,0)	(1,0)	
L1D -172>	(0,38)	(173,98)	(178,15)	(172,2)	(-58,1)	(2,14)	(167,123)	(171,3)	(1,8)	(117,2)	(-18,1)	(124,2)	(-1,1)	(-106,1)	(4,1)	(-28,1)	
L1D -171>	(171,119)	(172,10)	(170,4)	(1,4)	(0,17)	(6,10)	(176,9)	(-1,3)	(-4,39)	(166,10)	(167,8)	(24,1)	(132,1)	(177,105)	(90,31)	(2,1)	
L1D -170>	(33,27)	(0,22)	(-167,45)	(336,0)	(6,64)	(170,6)	(-168,50)	(-11,0)	(-20,0)	(171,0)	(416,0)	(1,1)	(1,0)	(1,0)	(1,0)	(1,0)	
L1D -169>	(1,12)	(169,11)	(170,79)	(-3,15)	(-6,15)	(168,5)	(87,5)	(0,19)	(338,15)	(157,2)	(62,1)	(27,6)	(206,1)	(5,7)	(6,1)	(-158,1)	
L1D -168>	(1,20)	(-3,55)	(168,23)	(338,8)	(0,5)	(100,0)	(343,82)	(87,24)	(115,3)	(-4,0)	(-294,0)	(119,0)	(1,0)	(1,0)	(1,0)	(1,0)	
L1D -167>	(-4,69)	(0,3)	(382,0)	(101,0)	(86,47)	(342,14)	(167,11)	(99,0)	(128,0)	(168,0)	(1,0)	(1,0)	(1,0)	(1,0)	(1,0)	(1,0)	
L1D -166>	(0,3)	(-4,111)	(2,0)	(171,0)	(1,4)	(163,0)	(166,16)	(172,0)	(-126,0)	(186,0)	(1,0)	(1,0)	(1,0)	(1,0)	(1,0)	(1,0)	
L1D -165>	(1,24)	(164,54)	(-6,10)	(0,28)	(3,2)	(5,4)	(-3,1)	(166,4)	(169,4)	(165,5)	(-5,1)	(40,1)	(1,0)	(1,0)	(1,0)	(1,0)	
L1D -164>	(-6,5)	(-174,57)	(0,5)	(-227,1)	(1,7)	(169,93)	(-18,1)	(165,2)	(91,1)	(174,1)	(162,1)	(456,0)	(170,0)	(1,0)	(1,0)	(1,0)	
L1D -163>	(1,20)	(27,8)	(0,14)	(6,11)	(124,5)	(-1,2)	(-128,1)	(164,4)	(5,3)	(8,1)	(163,7)	(-302,1)	(130,1)	(-6,2)	(24,2)	(-137,1)	
L1D -162>	(163,10)	(1,11)	(109,1)	(85,3)	(0,9)	(89,1)	(162,8)	(-161,1)	(2,1)	(116,1)	(-2,1)	(1,0)	(1,0)	(1,0)	(1,0)	(1,0)	
L1D -161>	(0,101)	(-6,1)	(6,3)	(-14,67)	(128,5)	(1,3)	(162,5)	(161,5)	(19,3)	(122,1)	(2,1)	(-218,1)	(176,1)	(-8,1)	(24,1)	(1,0)	
L1D -160>	(1,8)	(0,20)	(5,5)	(270,1)	(-1,1)	(-28,2)	(160,3)	(161,7)	(152,1)	(258,1)	(2,1)	(-5,1)	(178,1)	(-4,1)	(141,1)	(-6,2)	
L1D -159>	(-99,100)	(159,0)	(4,0)	(6,0)	(-98,1)	(2,0)	(0,0)	(1,1)	(1,0)	(1,0)	(1,0)	(1,0)	(1,0)	(1,0)	(1,0)	(1,0)	
L1D -158>	(1,18)	(-46,86)	(0,12)	(85,3)	(158,11)	(-3,2)	(-1,2)	(159,3)	(-99,2)	(-197,1)	(99,2)	(178,2)	(-157,1)	(276,1)	(-9,1)	(-210,1)	
L1D -157>	(157,12)	(1,2)	(336,1)	(3,92)	(0,5)	(4,4)	(6,0)	(13,5)	(2,0)	(128,0)	(-6,1)	(1,0)	(1,0)	(1,0)	(1,0)	(1,0)	
L1D -156>	(-4,3)	(1,14)	(3,31)	(157,6)	(352,1)	(85,2)	(0,18)	(156,3)	(137,3)	(-26,1)	(-6,1)	(128,1)	(52,2)	(-16,1)	(155,1)	(362,1)	
L1D -155>	(155,31)	(1,60)	(116,2)	(154,1)	(0,7)	(-137,3)	(5,1)	(2,5)	(24,1)	(52,1)	(156,2)	(4,1)	(418,1)	(6,1)	(1,0)	(1,0)	
L1D -154>	(1,7)	(154,7)	(155,19)	(10,1)	(335,1)	(0,17)	(139,1)	(-256,1)	(384,1)	(148,1)	(164,1)	(135,1)	(152,1)	(368,1)	(1,0)	(1,0)	
L1D -153>	(0,8)	(1,32)	(6,1)	(5,14)	(153,11)	(3,3)	(12,25)	(127,1)	(2,3)	(154,7)	(414,1)	(-1,2)	(27,3)	(9,1)	(1,0)	(1,0)	
L1D -152>	(99,2)	(1,18)	(0,14)	(5,1)	(133,1)	(153,9)	(-34,1)	(242,1)	(12,2)	(-90,1)	(157,1)	(-1,1)	(152,2)	(151,1)	(180,1)	(1,0)	
L1D -151>	(6,1)	(5,3)	(0,7)	(1,17)	(-13,2)	(151,15)	(152,5)	(-1,1)	(2,2)	(28,1)	(-46,1)	(226,1)	(-207,1)	(144,1)	(-116,1)	(1,0)	
L1D -150>	(0,12)	(151,3)	(1,17)	(150,13)	(326,1)	(110,1)	(153,1)	(160,1)	(-309,1)	(472,1)	(136,1)	(135,1)	(139,1)	(77,1)	(86,1)	(414,1)	
L1D -149>	(1,2)	(0,2)	(3,87)	(-6,2)	(2,0)	(13,5)	(-328,0)	(-74,0)	(149,7)	(4,4)	(1,0)	(1,0)	(1,0)	(1,0)	(1,0)	(1,0)	
L1D -148>	(272,1)	(5,2)	(0,19)	(3,53)	(148,3)	(71,1)	(1,14)	(149,7)	(-197,1)	(-2,1)	(2,1)	(-10,1)	(4,1)	(13,2)	(-110,1)	(-1,1)	
L1D -147>	(148,1)	(141,78)	(-33,33)	(17,2)	(130,0)	(6,1)	(147,2)	(-212,0)	(-52,0)	(3,1)	(0,0)	(1,1)	(1,0)	(1,0)	(1,0)	(1,0)	
L1D -146>	(108,1)	(9,111)	(2,37)	(394,1)	(-33,7)	(0,1)	(-14,0)	(-8,1)	(5,0)	(1,0)	(1,0)	(1,0)	(1,0)	(1,0)	(1,0)	(1,0)	
L1D -145>	(2,11)	(145,5)	(1,38)	(5,36)	(12,15)	(3,2)	(0,10)	(346,1)	(106,1)	(-8,2)	(147,5)	(-14,18)	(125,1)	(146,6)	(-6,1)	(373,1)	
L1D -144>	(0,107)	(7,114)	(-26,33)	(145,2)	(218,1)	(-9,2)	(373,1)	(19,1)	(20,2)	(144,4)	(336,1)	(2,2)	(229,1)	(116,0)	(1,2)	(1,0)	
L1D -143>	(0,39)	(19,61)	(124,2)	(2,4)	(1,19)	(143,12)	(4,2)	(27,2)	(154,1)	(142,3)	(-206,1)	(5,1)	(3,2)	(-10,2)	(-114,1)	(144,2)	
L1D -142>	(142,1)	(502,2)	(130,1)	(1,11)	(5,10)	(2,8)	(0,16)	(61,1)	(-137,1)	(70,1)	(145,1)	(498,1)	(69,2)	(113,2)	(148,4)	(-60,1)	
L1D -141>	(1,15)	(-3,127)	(0,8)	(68,2)	(-6,1)	(6,1)	(-160,1)	(141,9)	(-139,1)	(142,1)	(184,1)	(-194,1)	(140,1)	(506,1)	(482,1)	(5,1)	
L1D -140>	(1,17)	(2,3)	(61,2)	(-3,11)	(-2,4)	(0,14)	(140,2)	(91,1)	(146,4)	(112,1)	(-6,1)	(400,1)	(95,1)	(282,1)	(141,7)	(-96,1)	
L1D -139>	(1,26)	(100,3)	(5,5)	(3,12)	(0,8)	(-1,6)	(6,1)	(-137,1)	(-38,1)	(4,2)	(-126,1)	(-96,1)	(139,6)	(140,1)	(-6,1)	(19,1)	
L1D -138>	(1,11)	(126,5)	(0,18)	(4,1)	(5,3)	(60,1)	(138,7)	(144,5)	(386,1)	(134,1)	(139,5)	(-276,4)	(2,1)	(16,1)	(143,2)	(-4,1)	
L1D -137>	(-7,102)	(0,2)	(20,0)	(1,0)	(138,0)	(128,0)	(117,0)	(176,0)	(-3,0)	(224,0)	(147,0)	(5,0)	(52,0)	(137,1)	(6,0)	(2,0)	
L1D -136>	(0,97)	(1,3)	(-60,1)	(-9,1)	(416,1)	(136,2)	(135,0)	(137,5)	(122,0)	(1,0)	(1,0)	(1,0)	(1,0)	(1,0)	(1,0)	(1,0)	
L1D -135>	(0,78)	(2,5)	(1,20)	(174,1)	(6,10)	(161,1)	(198,1)	(135,20)	(7,13)	(-9,3)	(-34,1)	(10,1)	(5,1)	(24,2)	(416,1)	(28,1)	
L1D -134>	(5,7)	(1,13)	(135,7)	(127,1)	(-175,1)	(3,1)	(0,15)	(-1,10)	(2,1)	(139,1)	(137,1)	(134,9)	(53,1)	(-137,1)	(-197,1)	(-9,1)	
L1D -133>	(1,12)	(-3,65)	(0,5)	(-6,1)	(6,1)	(133,2)	(372,0)	(-12,0)	(5,1)	(2,2)	(144,0)	(132,1)	(159,0)	(134,2)	(184,0)	(416,0)	
L1D -132>	(6,77)	(5,0)	(179,19)	(-3,0)	(133,0)	(456,0)	(0,2)	(33,1)	(1,1)	(1,0)	(1,0)	(1,0)	(1,0)	(1,0)	(1,0)	(1,0)	
L1D -131>	(166,4)	(1,9)	(6,45)	(5,16)	(4,1)	(0,9)	(131,8)	(-128,1)	(2,2)	(89,1)	(70,1)	(132,3)	(154,1)	(179,2)	(24,2)	(-137,2)	
L1D -130>	(0,10)	(1,55)	(51,3)	(130,13)	(-137,1)	(129,1)	(-1,1)	(21,16)	(5,1)	(28,1)	(131,5)	(16,1)	(2,1)	(1,0)	(1,0)	(1,0)	
L1D -129>	(6,2)	(1,15)	(2,2)	(0,10)	(3,7)	(-1,4)	(130,9)	(100,1)	(12,1)	(-38,1)	(178,1)	(8,1)	(418,1)	(128,1)	(129,4)	(-92,1)	
L1D -128>	(0,26)	(1,8)	(-2,13)	(6,11)	(2,6)	(51,1)	(179,3)	(146,6)	(-1,2)	(5,8)	(129,12)	(368,1)	(-18,1)	(334,1)	(266,1)	(128,2)	
L1D -127>	(0,10)	(6,3)	(5,1)	(1,23)	(55,1)	(-1,2)	(2,1)	(117,1)	(372,1)	(416,1)	(60,1)	(98,1)	(127,15)	(164,1)	(128,2)	(-136,1)	
L1D -126>	(1,22)	(173,14)	(127,2)	(-1,9)	(179,5)	(126,12)	(0,12)	(5,4)	(146,2)	(61,1)	(6,38)	(-137,1)	(129,1)	(353,1)	(18,1)	(226,1)	
L1D -125>	(0,11)	(368,1)	(125,15)	(1,19)	(-264,1)	(5,14)	(3,2)	(-348,1)	(-13,1)	(-228,1)	(-214,2)	(-330,1)	(139,1)	(-244,1)	(2,1)	(126,3)	
L1D -124>	(21,125)	(2,4)	(1,15)	(416,1)	(129,2)	(348,1)	(256,1)	(125,4)	(0,17)	(390,1)	(162,1)	(5,2)	(124,8)	(-104,1)	(220,2)	(123,1)	
L1D -123>	(105,120)	(1,5)	(360,1)	(-38,1)	(146,1)	(0,2)	(90,1)	(388,0)	(-222,0)	(124,4)	(11,0)	(123,7)	(1,0)	(1,0)	(1,0)	(1,0)	
L1D -122>	(123,1)	(117,80)	(1,1)	(-2,0)	(2,0)	(0,0)	(102,0)	(122,1)	(1,0)	(1,0)	(1,0)	(1,0)	(1,0)	(1,0)	(1,0)	(1,0)	
L1D -121>	(1,12)	(2,9)	(0,10)	(-35,1)	(156,3)	(6,5)	(144,4)	(160,1)	(150,1)	(3,1)	(121,12)	(11,3)	(32,1)	(122,2)	(117,1)	(1,0)	
L1D -120>	(103,114)	(400,1)	(1,2)	(114,1)	(0,6)	(2,2)	(330,0)	(5,0)	(120,2)	(6,1)	(121,4)	(1,0)	(1,0)	(1,0)	(1,0)	(1,0)	
L1D -119>	(1,20)	(0,7)	(120,2)	(5,4)	(9,2)	(-103,1)	(119,17)	(-1,1)	(6,5)	(-2,1)	(-211,1)	(300,1)	(2,1)	(-104,1)	(-134,1)	(24,1)	
L1D -118>	(-206,2)	(1,12)	(378,1)	(118,12)	(206,1)	(-205,1)	(63,1)	(72,1)	(-1,1)	(0,14)	(-104,1)	(121,1)	(117,2)	(4,1)	(119,1)	(-16,1)	
L1D -117>	(71,46)	(82,90)	(1,6)	(-5,31)	(388,1)	(-1,1)	(117,14)	(2,1)	(67,11)	(6,1)	(-202,1)	(-130,1)	(5,4)	(118,3)	(0,4)	(-6,1)	
L1D -116>	(-7,71)	(81,69)	(1,15)	(334,1)	(100,1)	(117,6)	(49,1)	(116,4)	(113,2)	(-28,1)	(0,11)	(47,1)	(87,3)	(12,1)	(192,1)	(6,1)	
L1D -115>	(80,110)	(1,23)	(-5,44)	(115,13)	(0,7)	(53,3)	(3,11)	(65,5)	(-104,1)	(69,30)	(2,3)	(5,2)	(98,30)	(-103,1)	(114,1)	(-1,3)	
L1D -114>	(113,3)	(102,1)	(5,6)	(1,15)	(115,18)	(0,20)	(114,6)	(6,2)	(33,1)	(61,1)	(67,1)	(208,1)	(107,1)	(-137,1)	(156,1)	(1,0)	
L1D -113>	(1,31)	(0,15)	(78,15)	(-35,2)	(51,4)	(3,4)	(113,9)	(-9,8)	(67,4)	(228,1)	(132,1)	(17,1)	(63,1)	(-1,1)	(114,9)	(24,1)	
L1D -112>	(384,1)	(-4,44)	(86,17)	(112,25)	(0,21)	(6,2)	(-28,1)	(1,11)	(61,1)	(113,13)	(5,3)	(-1,3)	(24,1)	(54,1)	(3,1)	(182,1)	
L1D -111>	(45,14)	(1,14)	(93,69)	(0,6)	(5,2)	(6,4)	(68,1)	(-184,0)	(142,1)	(111,7)	(24,1)	(18,0)	(112,3)	(-1,0)	(2,1)	(125,0)	
L1D -110>	(1,3)	(69,1)	(7,2)	(111,1)	(0,103)	(110,1)	(-50,0)	(2,0)	(115,0)	(116,0)	(9,1)	(88,0)	(91,0)	(78,1)	(1,0)	(1,0)	
L1D -109>	(0,33)	(2,6)	(5,8)	(1,39)	(7,8)	(110,6)	(284,5)	(132,3)	(109,19)	(-6,1)	(148,3)	(6,10)	(100,1)	(424,1)	(3,2)	(89,1)	
L1D -108>	(-10,43)	(-220,1)	(0,74)	(78,109)	(-208,0)	(400,0)	(109,0)	(107,2)	(-1,2)	(-6,1)	(1,0)	(1,0)	(1,0)	(1,0)	(1,0)	(1,0)	
L1D -107>	(0,15)	(1,20)	(6,11)	(130,1)	(107,8)	(-1,2)	(5,4)	(-2,1)	(108,5)	(156,3)	(116,1)	(4,1)	(106,1)	(186,1)	(24,4)	(416,2)	
L1D -106>	(117,75)	(-164,1)	(106,3)	(1,5)	(-316,1)	(107,4)	(5,1)	(99,2)	(0,3)	(97,0)	(416,0)	(6,0)	(1,0)	(1,0)	(1,0)	(1,0)	
L1D -105>	(0,124)	(-4,6)	(86,9)	(6,0)	(2,0)	(-1,1)	(106,13)	(125,0)	(1,0)	(1,0)	(1,0)	(1,0)	(1,0)	(1,0)	(1,0)	(1,0)	
L1D -104>	(-103,4)	(110,1)	(-52,80)	(-102,4)	(104,14)	(0,1)	(2,0)	(103,1)	(105,3)	(-144,0)	(3,0)	(-1,0)	(28,0)	(65,0)	(1,3)	(1,0)	
L1D -103>	(-52,7)	(-102,13)	(103,34)	(60,105)	(-1,16)	(-104,1)	(104,42)	(382,0)	(3,0)	(7,11)	(108,0)	(381,0)	(0,16)	(78,0)	(-40,0)	(1,1)	
L1D -102>	(0,80)	(1,10)	(-226,1)	(170,1)	(113,2)	(103,6)	(101,1)	(352,1)	(6,1)	(102,5)	(5,2)	(308,2)	(15,3)	(376,0)	(-101,0)	(-104,1)	
L1D -101>	(1,18)	(0,14)	(124,5)	(-6,1)	(101,9)	(13,5)	(3,2)	(5,3)	(180,1)	(-2,1)	(146,2)	(100,1)	(140,2)	(-1,7)	(6,2)	(-4,1)	
L1D -100>	(99,13)	(372,1)	(0,10)	(101,28)	(5,5)	(236,1)	(1,16)	(107,1)	(113,2)	(100,16)	(2,2)	(61,1)	(120,1)	(24,1)	(89,4)	(-272,1)	
L1D -99>	(60,95)	(99,35)	(100,0)	(0,7)	(6,0)	(62,107)	(24,19)	(53,1)	(1,1)	(1,0)	(1,0)	(1,0)	(1,0)	(1,0)	(1,0)	(1,0)	
L1D -98>	(57,0)	(0,19)	(98,37)	(24,1)	(60,47)	(99,1)	(111,0)	(78,66)	(-1,0)	(1,0)	(1,0)	(1,0)	(1,0)	(1,0)	(1,0)	(1,0)	
L1D -97>	(98,115)	(1,2)	(0,1)	(4,1)	(97,30)	(2,1)	(150,1)	(416,1)	(-206,1)	(1,0)	(1,0)	(1,0)	(1,0)	(1,0)	(1,0)	(1,0)	
L1D -96>	(5,1)	(1,6)	(85,3)	(-9,102)	(2,2)	(111,2)	(107,5)	(-28,3)	(416,0)	(-1,3)	(96,6)	(101,0)	(420,0)	(0,2)	(97,9)	(102,0)	
L1D -95>	(1,81)	(24,18)	(94,3)	(-104,1)	(5,12)	(0,11)	(-5,1)	(140,1)	(2,11)	(95,20)	(372,2)	(467,3)	(485,1)	(451,1)	(483,1)	(96,7)	
L1D -94>	(95,15)	(1,22)	(0,21)	(93,4)	(-145,3)	(94,13)	(28,3)	(13,3)	(-9,2)	(2,2)	(-16,1)	(-206,1)	(140,1)	(-326,1)	(398,1)	(6,1)	
L1D -93>	(-8,100)	(107,5)	(93,1)	(94,1)	(24,7)	(5,0)	(0,0)	(132,1)	(116,0)	(408,0)	(-92,0)	(1,0)	(1,0)	(1,0)	(1,0)	(1,0)	
L1D -92>	(83,1)	(-9,121)	(107,6)	(97,3)	(86,4)	(28,1)	(0,2)	(400,1)	(1,2)	(93,8)	(-145,0)	(-330,0)	(92,0)	(5,0)	(-137,0)	(-1,0)	
L1D -91>	(130,1)	(91,3)	(96,117)	(-104,0)	(170,0)	(175,77)	(0,0)	(92,0)	(182,0)	(144,0)	(1,0)	(1,0)	(1,0)	(1,0)	(1,0)	(1,0)	
L1D -90>	(96,0)	(0,1)	(91,77)	(73,0)	(192,0)	(95,0)	(97,0)	(54,0)	(-3,0)	(5,0)	(28,0)	(1,0)	(1,0)	(1,0)	(1,0)	(1,0)	
L1D -89>	(0,104)	(1,20)	(5,1)	(98,47)	(89,17)	(6,3)	(-1,2)	(90,6)	(361,2)	(112,1)	(24,1)	(94,2)	(109,1)	(2,1)	(174,1)	(103,1)	
L1D -88>	(6,106)	(1,4)	(26,39)	(-238,1)	(7,3)	(34,0)	(9,3)	(0,2)	(88,3)	(28,0)	(89,4)	(68,0)	(119,0)	(-64,0)	(372,0)	(1,0)	
L1D -87>	(98,81)	(168,1)	(0,71)	(-4,1)	(7,1)	(87,1)	(416,1)	(26,0)	(5,1)	(1,0)	(1,0)	(1,0)	(1,0)	(1,0)	(1,0)	(1,0)	
L1D -86>	(1,2)	(87,26)	(61,1)	(85,1)	(-358,0)	(386,0)	(-137,0)	(86,7)	(47,0)	(416,0)	(0,2)	(-1,0)	(-4,118)	(332,0)	(2,0)	(-330,0)	
L1D -85>	(92,82)	(-8,68)	(72,6)	(45,5)	(90,3)	(120,0)	(1,0)	(0,1)	(86,2)	(6,0)	(107,3)	(85,4)	(99,0)	(1,0)	(1,0)	(1,0)	
L1D -84>	(85,37)	(6,6)	(1,14)	(-32,1)	(83,2)	(-104,1)	(0,11)	(5,1)	(84,16)	(386,1)	(55,2)	(335,2)	(47,1)	(75,2)	(115,1)	(173,1)	
L1D -83>	(-9,120)	(108,3)	(-5,6)	(95,1)	(0,3)	(84,0)	(83,0)	(1,0)	(1,0)	(1,0)	(1,0)	(1,0)	(1,0)	(1,0)	(1,0)	(1,0)	
L1D -82>	(117,94)	(-5,19)	(82,1)	(26,0)	(0,2)	(6,1)	(83,0)	(1,0)	(1,0)	(1,0)	(1,0)	(1,0)	(1,0)	(1,0)	(1,0)	(1,0)	
L1D -81>	(-7,124)	(116,48)	(1,4)	(7,7)	(-1,3)	(218,0)	(0,2)	(81,5)	(82,5)	(86,0)	(72,0)	(-223,0)	(3,3)	(1,0)	(1,0)	(1,0)	
L1D -80>	(115,76)	(0,2)	(2,1)	(168,0)	(79,0)	(80,2)	(81,1)	(86,0)	(74,0)	(1,0)	(1,0)	(1,0)	(1,0)	(1,0)	(1,0)	(1,0)	
L1D -79>	(1,81)	(0,52)	(75,71)	(79,25)	(-8,1)	(-238,1)	(2,4)	(132,11)	(-222,1)	(375,1)	(80,9)	(3,1)	(190,1)	(-358,1)	(-66,1)	(-103,1)	
L1D -78>	(83,0)	(0,89)	(60,110)	(79,0)	(113,2)	(98,0)	(78,0)	(-370,0)	(1,0)	(1,0)	(1,0)	(1,0)	(1,0)	(1,0)	(1,0)	(1,0)	
L1D -77>	(1,36)	(0,16)	(57,3)	(6,2)	(77,16)	(-84,1)	(-208,1)	(116,1)	(38,2)	(120,2)	(64,1)	(-103,1)	(78,13)	(3,1)	(5,1)	(-104,1)	
L1D -76>	(47,12)	(1,17)	(-34,1)	(5,2)	(2,16)	(0,27)	(28,1)	(103,2)	(76,8)	(-28,3)	(82,3)	(-103,1)	(-252,1)	(83,6)	(77,14)	(96,1)	
L1D -75>	(1,2)	(0,98)	(32,14)	(75,7)	(342,1)	(18,3)	(76,1)	(33,1)	(93,0)	(-1,0)	(1,0)	(1,0)	(1,0)	(1,0)	(1,0)	(1,0)	
L1D -74>	(17,121)	(1,21)	(2,6)	(0,15)	(481,1)	(75,8)	(32,2)	(170,1)	(74,10)	(-62,1)	(73,1)	(204,1)	(26,4)	(-1,7)	(232,1)	(-206,1)	
L1D -73>	(61,3)	(0,12)	(1,88)	(5,3)	(-234,3)	(-268,1)	(73,51)	(3,10)	(2,6)	(-103,1)	(6,1)	(130,4)	(-7,1)	(12,1)	(87,2)	(74,16)	
L1D -72>	(0,20)	(-4,50)	(1,17)	(72,8)	(24,4)	(-1,2)	(71,5)	(-6,1)	(5,1)	(66,6)	(73,27)	(35,1)	(3,3)	(151,1)	(-9,2)	(-16,1)	
L1D -71>	(76,27)	(1,20)	(-103,2)	(70,2)	(128,2)	(116,4)	(215,1)	(124,8)	(0,8)	(-1,2)	(5,2)	(71,12)	(72,5)	(24,1)	(169,1)	(-110,1)	
L1D -70>	(71,2)	(-85,79)	(0,2)	(130,0)	(99,0)	(20,0)	(19,0)	(1,1)	(53,0)	(5,0)	(70,2)	(296,0)	(37,0)	(-1,0)	(96,0)	(-62,0)	
L1D -69>	(22,95)	(5,1)	(-85,40)	(0,1)	(92,1)	(69,5)	(112,1)	(70,1)	(1,0)	(1,0)	(1,0)	(1,0)	(1,0)	(1,0)	(1,0)	(1,0)	
L1D -68>	(68,4)	(0,6)	(1,9)	(69,7)	(-20,5)	(376,1)	(-268,0)	(2,1)	(5,1)	(99,0)	(204,0)	(128,0)	(28,0)	(22,72)	(-228,0)	(101,0)	
L1D -67>	(-104,1)	(2,9)	(67,70)	(1,105)	(68,11)	(0,18)	(6,1)	(-291,1)	(-9,1)	(66,2)	(-206,1)	(3,28)	(-72,1)	(-1,1)	(-30,1)	(72,2)	
L1D -66>	(-45,90)	(-104,1)	(0,0)	(67,3)	(66,2)	(-2,0)	(73,0)	(1,1)	(1,0)	(1,0)	(1,0)	(1,0)	(1,0)	(1,0)	(1,0)	(1,0)	
L1D -65>	(1,93)	(2,19)	(6,28)	(65,61)	(0,12)	(118,6)	(70,5)	(214,1)	(5,2)	(3,31)	(-288,1)	(66,14)	(24,8)	(-4,1)	(79,1)	(85,3)	
L1D -64>	(64,14)	(58,6)	(65,74)	(-104,1)	(0,29)	(69,24)	(1,19)	(-4,28)	(63,7)	(82,1)	(44,1)	(-1,1)	(2,1)	(99,1)	(-9,1)	(108,1)	
L1D -63>	(108,6)	(1,24)	(0,16)	(128,6)	(116,7)	(6,3)	(61,9)	(156,4)	(-188,4)	(84,1)	(100,4)	(107,1)	(5,1)	(120,2)	(62,1)	(63,22)	
L1D -62>	(0,99)	(2,1)	(-208,1)	(8,15)	(1,6)	(154,3)	(322,1)	(82,3)	(62,13)	(-137,1)	(69,3)	(113,1)	(4,0)	(63,9)	(-18,0)	(68,1)	
L1D -61>	(1,77)	(99,19)	(160,1)	(4,1)	(62,0)	(0,0)	(61,5)	(1,0)	(1,0)	(1,0)	(1,0)	(1,0)	(1,0)	(1,0)	(1,0)	(1,0)	
L1D -60>	(5,0)	(60,121)	(-1,0)	(4,0)	(0,1)	(148,0)	(1,0)	(1,0)	(1,0)	(1,0)	(1,0)	(1,0)	(1,0)	(1,0)	(1,0)	(1,0)	
L1D -59>	(60,10)	(1,73)	(5,8)	(0,19)	(-138,1)	(58,2)	(-104,1)	(116,2)	(59,17)	(168,1)	(3,1)	(56,1)	(11,1)	(-98,1)	(69,3)	(-14,1)	
L1D -58>	(-4,25)	(32,2)	(224,1)	(-137,1)	(1,22)	(100,1)	(53,4)	(0,27)	(59,20)	(57,3)	(228,2)	(2,2)	(58,16)	(89,3)	(305,1)	(74,1)	
L1D -57>	(62,2)	(107,1)	(57,107)	(-1,8)	(58,8)	(-10,7)	(19,1)	(2,1)	(53,1)	(6,0)	(55,0)	(0,1)	(-104,0)	(1,1)	(1,0)	(1,0)	
L1D -56>	(16,92)	(30,11)	(56,11)	(4,1)	(-4,1)	(1,5)	(5,2)	(33,23)	(107,1)	(6,106)	(-188,1)	(57,18)	(0,12)	(8,1)	(144,1)	(-23,1)	
L1D -55>	(1,36)	(108,5)	(56,11)	(0,16)	(55,22)	(116,1)	(-228,1)	(54,2)	(-104,1)	(3,1)	(62,9)	(156,2)	(100,6)	(-272,1)	(-103,2)	(4,1)	
L1D -54>	(210,1)	(223,83)	(1,4)	(5,1)	(7,2)	(0,6)	(177,1)	(93,1)	(107,3)	(-376,1)	(6,1)	(416,0)	(54,7)	(55,7)	(-2,2)	(-1,0)	
L1D -53>	(1,37)	(53,87)	(2,11)	(54,12)	(5,4)	(0,12)	(223,64)	(-103,2)	(20,8)	(228,1)	(6,3)	(10,1)	(99,8)	(-6,1)	(96,2)	(52,2)	
L1D -52>	(-26,121)	(-50,7)	(52,22)	(24,16)	(155,1)	(-51,3)	(156,17)	(10,0)	(0,4)	(53,2)	(-1,0)	(5,0)	(1,0)	(1,0)	(1,0)	(1,0)	
L1D -51>	(52,91)	(6,18)	(1,7)	(0,12)	(5,2)	(-20,1)	(155,30)	(51,10)	(60,2)	(-6,7)	(366,0)	(-26,1)	(154,0)	(26,5)	(-148,0)	(416,0)	
L1D -50>	(0,12)	(24,3)	(60,1)	(55,3)	(51,0)	(-45,0)	(1,0)	(4,111)	(152,0)	(81,0)	(52,0)	(194,0)	(50,6)	(-217,0)	(9,0)	(-220,0)	
L1D -49>	(2,20)	(1,63)	(49,70)	(-104,1)	(0,15)	(50,59)	(6,3)	(-224,1)	(-206,1)	(40,1)	(-2,1)	(47,2)	(-232,1)	(144,1)	(149,1)	(48,7)	
L1D -48>	(113,21)	(68,6)	(47,43)	(31,8)	(37,9)	(48,39)	(0,14)	(52,4)	(165,14)	(2,6)	(7,86)	(1,14)	(49,62)	(66,5)	(-385,1)	(103,1)	
L1D -47>	(0,10)	(-212,1)	(47,119)	(14,0)	(400,0)	(-189,0)	(-214,0)	(45,0)	(48,1)	(1,0)	(1,0)	(1,0)	(1,0)	(1,0)	(1,0)	(1,0)	
L1D -46>	(5,0)	(47,1)	(93,4)	(-4,17)	(46,0)	(44,0)	(45,98)	(-1,0)	(1,1)	(1,0)	(1,0)	(1,0)	(1,0)	(1,0)	(1,0)	(1,0)	
L1D -45>	(93,90)	(1,1)	(44,1)	(2,0)	(72,1)	(6,0)	(46,3)	(5,0)	(45,3)	(0,0)	(144,0)	(50,0)	(256,0)	(-212,0)	(-23,0)	(1,0)	
L1D -44>	(-232,1)	(416,0)	(45,3)	(503,0)	(1,0)	(113,0)	(-214,0)	(43,2)	(91,0)	(51,0)	(-275,0)	(19,102)	(2,0)	(44,2)	(-1,0)	(49,0)	
L1D -43>	(-12,3)	(-13,12)	(1,2)	(43,4)	(44,1)	(70,8)	(6,3)	(54,1)	(-9,0)	(23,0)	(-11,1)	(-7,79)	(-10,1)	(48,1)	(2,2)	(-1,0)	
L1D -42>	(123,1)	(43,1)	(6,20)	(33,114)	(170,4)	(91,1)	(1,3)	(5,1)	(26,2)	(42,6)	(30,3)	(-229,0)	(0,1)	(-290,0)	(31,0)	(252,0)	
L1D -41>	(2,4)	(26,5)	(41,14)	(1,17)	(6,105)	(42,44)	(5,7)	(8,22)	(-1,6)	(29,11)	(3,1)	(40,10)	(0,5)	(170,12)	(-104,2)	(-204,3)	
L1D -40>	(0,65)	(-16,12)	(2,7)	(4,1)	(3,9)	(14,2)	(29,8)	(-24,9)	(5,5)	(1,7)	(40,5)	(-6,3)	(-29,10)	(41,23)	(21,1)	(-30,3)	
L1D -39>	(5,13)	(-1,17)	(2,67)	(0,123)	(1,51)	(-224,4)	(40,15)	(3,12)	(-205,2)	(44,3)	(37,2)	(29,3)	(39,44)	(6,22)	(-6,1)	(-232,1)	
L1D -38>	(2,53)	(-29,19)	(41,27)	(38,63)	(103,9)	(0,32)	(1,28)	(126,1)	(-212,3)	(36,26)	(37,3)	(39,23)	(-228,3)	(99,2)	(108,2)	(-10,6)	
L1D -37>	(37,3)	(1,5)	(19,107)	(2,13)	(5,4)	(6,4)	(36,8)	(-104,1)	(38,6)	(51,1)	(7,1)	(70,1)	(0,1)	(166,0)	(17,0)	(48,0)	
L1D -36>	(-216,0)	(330,0)	(41,3)	(103,0)	(0,61)	(38,103)	(-284,0)	(3,4)	(436,0)	(96,0)	(27,0)	(37,2)	(13,1)	(17,0)	(-212,0)	(-1,0)	
L1D -35>	(-81,41)	(5,1)	(35,7)	(-82,87)	(-80,34)	(30,0)	(36,1)	(-1,0)	(-78,3)	(6,3)	(-14,0)	(-116,0)	(1,0)	(1,0)	(1,0)	(1,0)	
L1D -34>	(0,56)	(34,15)	(-1,23)	(17,12)	(-35,3)	(1,6)	(38,39)	(-3,3)	(26,17)	(2,2)	(40,8)	(41,1)	(-6,1)	(-24,68)	(35,16)	(-132,1)	
L1D -33>	(50,42)	(28,26)	(33,87)	(2,9)	(1,3)	(0,40)	(30,7)	(19,47)	(20,5)	(46,41)	(180,45)	(14,17)	(42,1)	(-46,0)	(34,11)	(-29,2)	
L1D -32>	(32,4)	(39,1)	(1,3)	(16,13)	(-30,4)	(-29,58)	(-6,18)	(0,25)	(-14,100)	(102,13)	(28,16)	(17,2)	(-10,1)	(19,3)	(-24,7)	(33,9)	
L1D -31>	(-14,100)	(0,15)	(116,0)	(1,4)	(4,18)	(31,6)	(95,0)	(12,2)	(-156,0)	(2,0)	(32,4)	(-8,0)	(-104,0)	(-334,0)	(1,0)	(1,0)	
L1D -30>	(6,83)	(226,1)	(3,72)	(2,6)	(1,15)	(0,5)	(-90,1)	(-2,2)	(13,55)	(30,11)	(16,1)	(18,16)	(-46,3)	(-228,1)	(31,9)	(101,1)	
L1D -29>	(-14,3)	(2,9)	(29,13)	(0,2)	(28,1)	(-228,1)	(1,115)	(-1,25)	(34,1)	(6,81)	(30,38)	(43,71)	(-78,1)	(-6,1)	(-216,2)	(40,2)	
L1D -28>	(2,37)	(256,7)	(-14,8)	(28,120)	(25,15)	(32,6)	(7,12)	(10,37)	(34,1)	(1,1)	(-4,1)	(0,2)	(29,3)	(24,2)	(56,6)	(-26,2)	
L1D -27>	(27,63)	(1,52)	(40,93)	(4,3)	(0,1)	(84,2)	(9,2)	(36,0)	(28,0)	(-10,0)	(2,1)	(255,0)	(-104,0)	(1,0)	(1,0)	(1,0)	
L1D -26>	(33,105)	(-24,5)	(35,40)	(180,21)	(28,8)	(1,20)	(25,34)	(6,36)	(45,1)	(0,17)	(19,40)	(26,16)	(5,11)	(-13,19)	(-14,81)	(34,23)	
L1D -25>	(1,65)	(24,0)	(41,43)	(-188,0)	(0,0)	(-24,0)	(-57,1)	(26,23)	(276,0)	(-6,0)	(-52,1)	(25,0)	(18,1)	(39,0)	(77,2)	(-29,11)	
L1D -24>	(24,7)	(33,6)	(0,47)	(19,7)	(23,5)	(3,6)	(22,2)	(-6,3)	(1,10)	(18,100)	(99,4)	(-1,7)	(25,25)	(6,13)	(17,1)	(13,6)	
L1D -23>	(2,63)	(0,76)	(22,69)	(23,9)	(1,59)	(-13,1)	(3,15)	(-69,0)	(-189,0)	(-10,0)	(24,2)	(-11,0)	(-104,0)	(37,0)	(1,0)	(1,0)	
L1D -22>	(2,25)	(23,4)	(0,2)	(-6,16)	(250,87)	(-266,1)	(-26,0)	(25,3)	(22,6)	(7,2)	(394,0)	(28,6)	(1,4)	(13,3)	(-144,0)	(-3,11)	
L1D -21>	(1,15)	(-14,0)	(0,2)	(20,0)	(21,64)	(-257,0)	(5,0)	(-3,12)	(-2,15)	(-4,13)	(17,11)	(62,0)	(2,0)	(-114,0)	(22,4)	(41,0)	
L1D -20>	(10,2)	(1,48)	(3,12)	(6,16)	(0,90)	(26,14)	(24,11)	(9,64)	(20,84)	(23,42)	(-92,1)	(13,91)	(21,4)	(19,1)	(-57,1)	(-6,23)	
L1D -19>	(59,1)	(0,3)	(-12,7)	(-13,17)	(1,49)	(25,0)	(-4,12)	(-86,21)	(-7,69)	(41,0)	(-10,2)	(-6,1)	(19,12)	(20,2)	(-11,37)	(7,1)	
L1D -18>	(22,24)	(1,47)	(13,1)	(-5,1)	(18,1)	(4,7)	(23,1)	(256,12)	(-3,91)	(0,1)	(10,5)	(-14,1)	(7,0)	(15,0)	(19,0)	(-6,12)	
L1D -17>	(17,32)	(0,17)	(16,77)	(18,9)	(1,123)	(11,11)	(27,1)	(-91,72)	(14,32)	(12,21)	(-7,27)	(-32,2)	(-1,4)	(-43,1)	(37,0)	(31,2)	
L1D -16>	(1,34)	(16,45)	(17,105)	(-5,49)	(2,18)	(56,105)	(404,1)	(7,4)	(14,8)	(-26,12)	(-3,52)	(0,5)	(-83,89)	(-7,4)	(-32,4)	(15,6)	
L1D -15>	(1,122)	(-51,2)	(31,79)	(-5,4)	(-25,2)	(0,4)	(35,1)	(13,1)	(-8,1)	(16,7)	(-26,1)	(-11,3)	(15,17)	(47,0)	(3,3)	(14,0)	
L1D -14>	(6,70)	(3,2)	(-26,28)	(24,1)	(0,113)	(-16,5)	(1,29)	(26,9)	(-14,12)	(14,6)	(9,18)	(15,3)	(-29,1)	(-24,0)	(18,2)	(-4,2)	
L1D -13>	(31,0)	(-5,69)	(14,1)	(13,11)	(1,84)	(-16,2)	(0,44)	(17,0)	(-6,14)	(24,1)	(-11,0)	(18,0)	(195,2)	(-7,1)	(214,0)	(-10,0)	
L1D -12>	(1,22)	(206,0)	(2,0)	(12,54)	(0,6)	(4,21)	(16,0)	(-6,1)	(-105,8)	(9,5)	(13,67)	(-3,5)	(6,14)	(-19,17)	(5,4)	(-98,22)	
L1D -11>	(1,63)	(0,2)	(5,13)	(-29,2)	(-30,2)	(11,34)	(2,1)	(-8,1)	(-6,0)	(-98,0)	(-1,1)	(-13,5)	(12,4)	(-11,1)	(-7,90)	(-12,3)	
L1D -10>	(117,29)	(-98,11)	(7,59)	(0,66)	(1,9)	(2,21)	(-4,1)	(28,62)	(10,57)	(-16,8)	(-1,2)	(12,6)	(3,33)	(-15,13)	(11,4)	(-7,26)	
L1D -9>	(6,0)	(12,95)	(146,0)	(-17,0)	(9,4)	(233,0)	(0,0)	(10,0)	(117,0)	(479,0)	(-1,0)	(116,1)	(2,0)	(5,0)	(7,0)	(1,1)	
L1D -8>	(2,50)	(4,17)	(8,8)	(24,1)	(1,70)	(-1,1)	(-10,3)	(-18,0)	(-7,1)	(6,1)	(3,2)	(28,1)	(115,55)	(-26,33)	(0,7)	(9,10)	
L1D -7>	(0,36)	(-236,1)	(1,126)	(-26,43)	(6,3)	(-226,1)	(-217,1)	(7,46)	(8,3)	(-9,11)	(-11,2)	(-25,6)	(123,20)	(16,1)	(-29,1)	(105,1)	
L1D -6>	(1,124)	(33,6)	(-19,3)	(3,3)	(-84,1)	(7,3)	(6,22)	(-5,1)	(-11,12)	(-30,5)	(2,1)	(0,4)	(145,1)	(-7,1)	(239,8)	(-174,2)	
L1D -5>	(0,24)	(1,64)	(-4,31)	(10,18)	(7,17)	(5,34)	(17,1)	(-245,2)	(-5,2)	(15,1)	(-251,0)	(13,6)	(122,2)	(-250,0)	(-103,2)	(-168,0)	
L1D -4>	(0,32)	(1,60)	(4,85)	(2,14)	(341,10)	(-99,43)	(-2,13)	(28,6)	(3,9)	(-33,1)	(-15,4)	(-168,11)	(7,3)	(22,20)	(21,11)	(97,6)	
L1D -3>	(1,41)	(0,77)	(-5,3)	(-9,52)	(6,1)	(-20,13)	(28,0)	(3,21)	(-3,6)	(-4,1)	(-7,10)	(-1,17)	(22,4)	(4,2)	(9,0)	(2,1)	
L1D -2>	(2,100)	(1,67)	(24,8)	(0,20)	(-108,32)	(-10,1)	(-36,9)	(-14,16)	(3,2)	(-18,1)	(21,1)	(7,1)	(19,1)	(5,4)	(-255,1)	(251,1)	
L1D -1>	(0,49)	(39,3)	(-108,2)	(-1,9)	(1,92)	(58,1)	(12,20)	(-5,13)	(-16,3)	(100,6)	(61,1)	(-37,1)	(385,1)	(-23,1)	(5,1)	(-3,6)	
L1D 0>	(0,114)	(-9,4)	(10,1)	(414,1)	(-12,1)	(1,3)	(-5,1)	(-13,1)	(411,1)	(98,1)	(306,1)	(21,0)	(5,1)	(-17,0)	(-328,1)	(4,1)	
L1D 1>	(5,3)	(-11,1)	(2,16)	(-5,1)	(3,1)	(1,116)	(-206,1)	(8,2)	(-416,1)	(-2,1)	(-6,2)	(-18,1)	(-1,3)	(11,1)	(12,1)	(-4,1)	
L1D 2>	(26,2)	(279,1)	(0,2)	(-230,1)	(-2,19)	(266,0)	(1,96)	(4,0)	(-32,0)	(17,2)	(12,2)	(-26,6)	(19,1)	(-17,0)	(5,3)	(-3,0)	
L1D 3>	(1,104)	(6,68)	(0,31)	(-10,25)	(17,5)	(10,18)	(-3,80)	(-4,16)	(5,24)	(3,9)	(8,1)	(2,11)	(343,1)	(-2,12)	(-23,3)	(-12,1)	
L1D 4>	(9,2)	(-7,8)	(-4,99)	(6,2)	(8,2)	(-277,60)	(7,21)	(114,2)	(-1,9)	(1,10)	(10,16)	(342,2)	(-3,24)	(-6,3)	(4,5)	(0,4)	
L1D 5>	(53,1)	(-5,39)	(341,1)	(-2,2)	(1,70)	(17,1)	(85,1)	(-4,11)	(5,2)	(4,3)	(-3,13)	(13,1)	(-6,1)	(10,0)	(-303,0)	(0,8)	
L1D 6>	(-174,30)	(1,85)	(-6,80)	(18,17)	(8,10)	(12,49)	(20,58)	(-20,1)	(27,6)	(173,14)	(169,5)	(-3,31)	(-132,5)	(-1,6)	(164,14)	(-173,3)	
L1D 7>	(0,64)	(-1,123)	(1,91)	(-42,22)	(-7,56)	(-6,46)	(-26,18)	(2,14)	(-3,3)	(-10,34)	(-4,18)	(-33,30)	(293,1)	(-365,1)	(13,2)	(14,3)	
L1D 8>	(1,89)	(0,26)	(15,2)	(14,2)	(2,1)	(-222,0)	(3,7)	(-20,1)	(-8,2)	(-220,0)	(290,0)	(16,2)	(-6,0)	(-1,0)	(-7,0)	(-212,0)	
L1D 9>	(1,106)	(0,16)	(13,1)	(4,35)	(-9,16)	(17,4)	(12,0)	(-2,12)	(-11,0)	(-7,16)	(-16,9)	(7,2)	(-42,11)	(-3,5)	(-8,7)	(3,8)	
L1D 10>	(1,46)	(-9,34)	(8,108)	(-10,12)	(-8,48)	(144,4)	(0,106)	(136,5)	(-12,19)	(-11,78)	(205,1)	(-6,16)	(-3,30)	(255,15)	(7,37)	(19,6)	
L1D 11>	(-1,8)	(2,34)	(-35,3)	(1,33)	(7,8)	(6,5)	(-20,21)	(9,2)	(-2,64)	(-12,9)	(-24,2)	(-68,0)	(-110,10)	(0,13)	(-7,1)	(22,2)	
L1D 12>	(4,12)	(-3,87)	(-34,1)	(254,1)	(7,1)	(1,12)	(6,0)	(-6,0)	(-250,0)	(-8,0)	(-1,0)	(-12,12)	(-11,0)	(-20,13)	(0,0)	(24,0)	
L1D 13>	(7,67)	(-1,14)	(0,6)	(-85,0)	(25,45)	(-10,3)	(1,17)	(10,0)	(11,5)	(26,7)	(28,0)	(-2,4)	(3,0)	(-9,0)	(-42,0)	(-13,6)	
L1D 14>	(26,3)	(27,12)	(2,28)	(28,16)	(-9,41)	(-14,81)	(0,9)	(-22,2)	(1,5)	(-25,8)	(-13,63)	(6,39)	(-4,26)	(4,3)	(18,2)	(20,8)	
L1D 15>	(0,66)	(-16,3)	(1,1)	(26,8)	(30,13)	(-10,11)	(32,3)	(20,2)	(313,22)	(22,4)	(29,7)	(-15,21)	(-32,4)	(3,1)	(5,1)	(-17,0)	
L1D 16>	(-2,7)	(0,98)	(-17,3)	(-16,38)	(1,36)	(-15,12)	(-32,20)	(3,4)	(-1,1)	(7,11)	(40,43)	(32,18)	(31,7)	(2,1)	(5,1)	(-7,2)	
L1D 17>	(-1,105)	(-6,51)	(-31,23)	(-17,23)	(0,46)	(34,12)	(33,4)	(45,3)	(-3,46)	(-20,71)	(-23,42)	(25,1)	(24,3)	(-18,12)	(-11,15)	(57,6)	
L1D 18>	(-78,78)	(36,1)	(-23,7)	(226,1)	(-24,1)	(21,7)	(-6,0)	(268,0)	(-12,0)	(0,27)	(-20,1)	(9,1)	(35,1)	(146,0)	(-18,15)	(218,0)	
L1D 19>	(-18,15)	(-6,1)	(204,1)	(1,99)	(222,1)	(220,1)	(198,2)	(224,2)	(6,12)	(0,4)	(238,1)	(-17,7)	(38,2)	(-9,1)	(212,2)	(-19,8)	
L1D 20>	(-26,57)	(0,18)	(223,1)	(-20,78)	(3,3)	(40,2)	(-19,1)	(-6,2)	(-1,1)	(14,2)	(2,2)	(154,0)	(6,9)	(7,2)	(-13,0)	(5,1)	
L1D 21>	(-26,1)	(-18,75)	(0,5)	(-20,1)	(-99,23)	(-25,1)	(42,8)	(7,80)	(41,5)	(-21,54)	(-3,29)	(-17,10)	(-8,2)	(-23,28)	(-19,5)	(26,1)	
L1D 22>	(306,55)	(-66,52)	(-108,39)	(5,1)	(-21,12)	(9,36)	(-16,74)	(-19,15)	(43,1)	(0,1)	(-22,5)	(44,4)	(-111,3)	(146,122)	(-18,1)	(4,1)	
L1D 23>	(46,4)	(5,1)	(0,81)	(-23,9)	(-3,2)	(-230,1)	(-210,1)	(-211,0)	(-15,0)	(-218,0)	(45,2)	(-52,0)	(-21,0)	(48,0)	(1,1)	(1,0)	
L1D 24>	(146,72)	(1,5)	(-24,47)	(33,3)	(0,37)	(32,84)	(9,45)	(47,5)	(29,49)	(-21,30)	(-18,18)	(-20,9)	(6,1)	(48,12)	(2,1)	(-23,4)	
L1D 25>	(62,1)	(-27,77)	(49,4)	(-25,55)	(8,0)	(-2,0)	(52,31)	(50,0)	(-280,0)	(-37,0)	(0,1)	(-3,1)	(4,0)	(234,0)	(1,1)	(1,0)	
L1D 26>	(-21,3)	(-28,13)	(7,4)	(2,53)	(52,46)	(51,40)	(-25,3)	(-6,1)	(1,3)	(8,1)	(-7,1)	(5,1)	(154,1)	(-26,97)	(6,2)	(0,1)	
L1D 27>	(-23,69)	(54,4)	(-226,5)	(-39,7)	(57,0)	(53,1)	(-78,1)	(2,9)	(0,2)	(7,7)	(-82,3)	(-27,28)	(9,11)	(13,2)	(-11,3)	(-33,2)	
L1D 28>	(-282,1)	(-28,76)	(17,6)	(-264,1)	(-14,14)	(4,17)	(-27,41)	(28,14)	(-54,14)	(-248,2)	(64,0)	(147,1)	(-21,11)	(58,0)	(6,0)	(-26,31)	
L1D 29>	(58,11)	(1,13)	(2,3)	(-28,114)	(-2,1)	(206,0)	(60,3)	(0,5)	(-250,0)	(-29,15)	(11,3)	(-259,0)	(6,0)	(-1,2)	(57,6)	(-39,2)	
L1D 30>	(-262,1)	(1,13)	(26,4)	(-14,9)	(0,16)	(-30,33)	(16,72)	(-16,4)	(60,18)	(-1,45)	(-246,30)	(-278,12)	(2,2)	(4,3)	(-29,10)	(62,14)	
L1D 31>	(0,8)	(4,2)	(3,2)	(11,2)	(7,118)	(-31,8)	(-2,2)	(6,3)	(-339,1)	(-43,2)	(64,1)	(-186,1)	(9,36)	(61,6)	(1,1)	(62,7)	
L1D 32>	(63,2)	(1,1)	(-32,10)	(70,70)	(-18,0)	(5,0)	(-56,14)	(-4,2)	(-30,6)	(0,0)	(64,7)	(-31,3)	(-23,0)	(-33,0)	(-62,0)	(-6,0)	
L1D 33>	(-7,31)	(2,11)	(9,94)	(0,9)	(211,6)	(261,3)	(80,3)	(233,1)	(-41,3)	(273,3)	(231,4)	(281,2)	(-33,35)	(-31,10)	(253,2)	(-423,1)	
L1D 34>	(-1,6)	(5,4)	(10,1)	(3,1)	(-8,107)	(-6,2)	(-2,0)	(-280,0)	(1,3)	(-20,1)	(-18,1)	(-282,1)	(-34,11)	(67,5)	(68,10)	(0,7)	
L1D 35>	(-116,3)	(72,1)	(-35,5)	(-117,6)	(7,86)	(-115,8)	(-6,0)	(48,0)	(70,2)	(1,3)	(2,1)	(-15,0)	(-5,0)	(-113,0)	(5,1)	(69,4)	
L1D 36>	(2,20)	(0,18)	(5,29)	(-248,2)	(-264,1)	(1,15)	(129,4)	(187,2)	(128,86)	(72,17)	(71,9)	(-35,1)	(-2,3)	(-16,27)	(-6,2)	(-36,26)	
L1D 37>	(-37,66)	(0,17)	(128,9)	(-2,6)	(-1,13)	(1,15)	(73,10)	(2,2)	(5,2)	(76,2)	(-241,1)	(74,9)	(10,4)	(-36,2)	(-16,2)	(-6,1)	
L1D 38>	(242,2)	(1,61)	(0,57)	(226,1)	(210,1)	(254,0)	(-30,14)	(264,0)	(-38,2)	(-35,0)	(-2,75)	(-98,0)	(76,2)	(256,1)	(386,0)	(266,0)	
L1D 39>	(11,92)	(266,1)	(-39,1)	(242,1)	(260,1)	(258,1)	(5,1)	(218,1)	(-33,0)	(-30,4)	(-92,0)	(-46,1)	(1,0)	(0,0)	(-38,0)	(78,1)	
L1D 40>	(-34,8)	(194,1)	(2,1)	(-37,1)	(386,80)	(79,0)	(5,2)	(-26,13)	(-40,2)	(80,1)	(24,0)	(-104,0)	(1,1)	(-262,0)	(1,0)	(1,0)	
L1D 41>	(0,2)	(7,121)	(216,1)	(84,1)	(5,4)	(386,5)	(2,1)	(-4,0)	(-41,7)	(6,3)	(82,2)	(-93,2)	(-1,3)	(81,4)	(45,0)	(1,2)	
L1D 42>	(5,25)	(83,26)	(-9,69)	(1,23)	(-12,63)	(-42,60)	(-2,9)	(0,39)	(84,39)	(12,10)	(-16,19)	(239,1)	(-41,5)	(-7,10)	(128,44)	(86,5)	
L1D 43>	(5,7)	(4,0)	(11,71)	(-43,13)	(2,36)	(1,3)	(12,8)	(-6,1)	(0,5)	(86,6)	(88,2)	(85,4)	(-1,1)	(-85,0)	(60,0)	(-41,0)	
L1D 44>	(-1,45)	(5,3)	(-44,21)	(203,3)	(-43,3)	(11,68)	(1,19)	(0,3)	(88,19)	(-6,2)	(-20,3)	(125,1)	(350,1)	(-258,1)	(12,2)	(87,6)	
L1D 45>	(3,0)	(90,0)	(89,0)	(-256,0)	(27,0)	(-44,0)	(11,19)	(-6,0)	(-1,70)	(-45,0)	(48,0)	(1,0)	(0,0)	(4,0)	(-31,17)	(-414,0)	
L1D 46>	(-6,1)	(1,17)	(2,5)	(0,7)	(4,2)	(92,20)	(5,10)	(20,1)	(6,1)	(-46,27)	(-32,126)	(-4,10)	(-45,4)	(91,14)	(94,7)	(-481,1)	
L1D 47>	(-4,115)	(95,1)	(37,1)	(93,2)	(0,1)	(96,2)	(375,1)	(65,3)	(106,1)	(1,5)	(-47,1)	(67,0)	(94,1)	(-146,4)	(-137,0)	(85,0)	
L1D 48>	(-93,27)	(1,89)	(3,46)	(-4,43)	(2,11)	(-2,10)	(-1,34)	(5,64)	(4,12)	(95,25)	(0,34)	(-48,85)	(-32,1)	(-146,7)	(87,3)	(96,54)	
L1D 49>	(1,95)	(-60,1)	(97,54)	(-49,115)	(5,44)	(-20,1)	(0,37)	(-50,2)	(100,17)	(98,49)	(54,2)	(4,6)	(-2,1)	(-1,1)	(104,1)	(3,1)	
L1D 50>	(100,3)	(-416,0)	(21,120)	(102,0)	(2,4)	(0,0)	(-50,4)	(99,6)	(-58,0)	(1,0)	(1,0)	(1,0)	(1,0)	(1,0)	(1,0)	(1,0)	
L1D 51>	(1,7)	(104,113)	(5,5)	(-51,72)	(72,1)	(-101,1)	(102,9)	(101,1)	(182,1)	(0,3)	(368,0)	(4,0)	(1,0)	(1,0)	(1,0)	(1,0)	
L1D 52>	(103,13)	(-416,0)	(-2,0)	(0,0)	(-55,0)	(-1,0)	(1,0)	(4,2)	(20,0)	(14,0)	(3,0)	(-51,3)	(104,79)	(-50,0)	(-52,6)	(1,0)	
L1D 53>	(1,72)	(5,7)	(4,29)	(170,46)	(-146,5)	(0,20)	(58,1)	(-53,26)	(2,6)	(-415,1)	(45,84)	(-105,1)	(-54,1)	(105,20)	(108,1)	(106,14)	
L1D 54>	(1,45)	(-53,4)	(107,12)	(5,9)	(-1,3)	(0,14)	(-54,63)	(108,33)	(2,9)	(110,3)	(53,1)	(-51,1)	(20,4)	(4,1)	(-414,1)	(258,1)	
L1D 55>	(0,20)	(1,82)	(3,46)	(109,25)	(-55,18)	(5,16)	(112,5)	(146,1)	(2,11)	(-432,1)	(-2,2)	(22,1)	(-1,39)	(110,23)	(-56,1)	(-40,1)	
L1D 56>	(-26,70)	(1,0)	(-28,1)	(106,0)	(-55,0)	(33,0)	(-134,0)	(-56,1)	(-54,2)	(84,0)	(112,0)	(315,0)	(0,0)	(-100,0)	(-50,0)	(279,0)	
L1D 57>	(1,1)	(-57,116)	(171,2)	(-75,13)	(113,4)	(-4,0)	(6,0)	(4,2)	(0,1)	(114,3)	(-1,0)	(-2,0)	(1,0)	(1,0)	(1,0)	(1,0)	
L1D 58>	(170,68)	(-62,14)	(5,3)	(-56,36)	(1,43)	(0,23)	(-42,1)	(118,5)	(-1,8)	(-14,2)	(116,20)	(-58,34)	(115,12)	(4,4)	(-114,2)	(-55,3)	
L1D 59>	(1,51)	(-59,18)	(0,26)	(-39,1)	(5,6)	(-20,1)	(117,18)	(2,1)	(-2,2)	(-43,3)	(118,16)	(12,1)	(-78,1)	(-1,17)	(3,10)	(120,3)	
L1D 60>	(18,64)	(-60,70)	(-59,0)	(38,61)	(20,0)	(-61,28)	(295,0)	(-352,3)	(-89,0)	(0,0)	(39,37)	(120,0)	(321,3)	(5,0)	(1,0)	(1,0)	
L1D 61>	(39,53)	(-60,71)	(38,79)	(-268,4)	(2,8)	(122,22)	(-61,62)	(4,2)	(18,25)	(0,13)	(1,12)	(121,13)	(5,4)	(124,1)	(-7,1)	(14,1)	
L1D 62>	(-61,2)	(196,90)	(-1,1)	(-62,1)	(270,0)	(124,1)	(-286,0)	(0,1)	(1,0)	(1,0)	(1,0)	(1,0)	(1,0)	(1,0)	(1,0)	(1,0)	
L1D 63>	(5,7)	(2,9)	(128,6)	(1,80)	(56,1)	(-2,3)	(-45,3)	(0,30)	(-66,1)	(126,23)	(125,12)	(-64,1)	(-492,1)	(-63,15)	(3,2)	(72,1)	
L1D 64>	(0,28)	(-68,6)	(182,3)	(-64,20)	(128,38)	(-63,8)	(-127,1)	(-20,7)	(5,7)	(1,37)	(19,7)	(127,5)	(280,3)	(20,2)	(-134,2)	(40,5)	
L1D 65>	(1,43)	(-65,72)	(130,9)	(0,13)	(5,21)	(56,2)	(-1,1)	(-2,1)	(70,1)	(3,2)	(129,10)	(-136,0)	(2,1)	(24,0)	(18,1)	(4,4)	
L1D 66>	(-6,67)	(-28,6)	(-20,14)	(-134,3)	(40,6)	(-66,9)	(1,33)	(164,3)	(82,4)	(132,1)	(131,15)	(182,2)	(0,18)	(5,7)	(-64,32)	(-1,8)	
L1D 67>	(0,11)	(5,15)	(-67,66)	(1,29)	(134,7)	(2,4)	(133,6)	(136,2)	(68,10)	(-62,0)	(93,1)	(-1,3)	(-456,1)	(56,1)	(3,1)	(4,9)	
L1D 68>	(136,3)	(-139,1)	(-147,1)	(114,105)	(1,1)	(0,1)	(126,0)	(-19,0)	(20,1)	(-68,8)	(110,0)	(36,0)	(135,1)	(-6,1)	(-390,0)	(188,0)	
L1D 69>	(140,7)	(-69,18)	(3,46)	(5,24)	(1,52)	(0,26)	(2,17)	(93,13)	(-1,39)	(4,3)	(17,2)	(-151,1)	(138,14)	(68,1)	(-4,18)	(137,21)	
L1D 70>	(30,1)	(139,1)	(7,110)	(152,3)	(176,0)	(0,1)	(-138,0)	(9,20)	(6,6)	(1,2)	(-70,3)	(140,1)	(5,0)	(-139,0)	(-19,0)	(100,0)	
L1D 71>	(93,95)	(5,22)	(2,9)	(1,53)	(0,12)	(4,3)	(-4,40)	(18,2)	(141,13)	(-1,1)	(-70,3)	(3,1)	(-71,11)	(144,6)	(17,2)	(142,8)	
L1D 72>	(1,35)	(-71,1)	(13,7)	(-11,61)	(0,75)	(14,42)	(-1,2)	(-296,14)	(-76,17)	(321,15)	(5,4)	(-52,7)	(94,7)	(146,3)	(-20,10)	(114,4)	
L1D 73>	(5,15)	(3,11)	(1,50)	(0,30)	(-2,2)	(18,9)	(-73,79)	(2,7)	(148,4)	(19,3)	(24,7)	(-145,1)	(-1,6)	(4,2)	(145,13)	(146,9)	
L1D 74>	(-74,119)	(-75,14)	(321,2)	(1,35)	(0,16)	(-20,3)	(-72,53)	(148,10)	(147,14)	(-6,14)	(18,3)	(150,3)	(-298,1)	(20,1)	(2,2)	(5,7)	
L1D 75>	(-74,26)	(-75,118)	(152,5)	(1,3)	(17,1)	(18,3)	(0,4)	(19,1)	(68,4)	(-148,1)	(150,8)	(5,26)	(29,1)	(149,2)	(10,1)	(2,2)	
L1D 76>	(1,26)	(80,10)	(3,48)	(4,3)	(-76,23)	(5,4)	(0,18)	(20,4)	(-1,46)	(152,20)	(-14,4)	(151,7)	(2,8)	(28,1)	(-2,1)	(14,1)	
L1D 77>	(1,58)	(0,23)	(-2,16)	(14,6)	(104,58)	(-1,14)	(153,12)	(16,2)	(-77,22)	(154,15)	(156,2)	(107,1)	(3,14)	(-81,1)	(2,12)	(-79,1)	
L1D 78>	(28,1)	(-78,92)	(104,0)	(155,0)	(-154,0)	(0,0)	(56,0)	(4,0)	(-52,0)	(-80,0)	(-82,0)	(-75,0)	(156,0)	(80,0)	(-1,0)	(1,0)	
L1D 79>	(-78,87)	(31,1)	(-300,1)	(-79,11)	(158,14)	(1,15)	(29,3)	(14,7)	(0,6)	(160,7)	(157,7)	(-10,2)	(18,1)	(337,1)	(-123,1)	(-218,1)	
L1D 80>	(-81,43)	(35,39)	(-80,36)	(7,72)	(0,60)	(1,26)	(-184,8)	(-46,8)	(-20,16)	(-2,1)	(-208,5)	(-1,3)	(-108,2)	(138,6)	(186,4)	(-6,9)	
L1D 81>	(1,27)	(35,8)	(-82,18)	(0,9)	(2,1)	(4,1)	(-81,78)	(-416,1)	(-80,12)	(162,14)	(-2,1)	(5,3)	(18,1)	(45,1)	(-105,0)	(161,8)	
L1D 82>	(-82,125)	(35,62)	(-36,39)	(-79,21)	(1,25)	(-81,9)	(164,9)	(-9,48)	(-80,38)	(-46,6)	(86,2)	(-6,34)	(5,11)	(163,16)	(-78,9)	(38,1)	
L1D 83>	(5,6)	(1,56)	(3,40)	(0,25)	(10,3)	(-2,3)	(-1,39)	(4,3)	(59,1)	(2,5)	(165,14)	(-413,1)	(-83,11)	(-165,6)	(70,2)	(18,1)	
L1D 84>	(1,9)	(-4,71)	(-165,1)	(-84,1)	(0,1)	(2,4)	(300,0)	(-175,0)	(166,0)	(-57,0)	(-171,0)	(1,0)	(1,0)	(1,0)	(1,0)	(1,0)	
L1D 85>	(1,105)	(73,1)	(0,9)	(5,2)	(-169,1)	(-85,3)	(-86,2)	(-31,1)	(-10,1)	(11,0)	(-168,0)	(-6,1)	(1,0)	(1,0)	(1,0)	(1,0)	
L1D 86>	(1,104)	(-85,1)	(-37,1)	(256,12)	(0,4)	(-90,127)	(80,1)	(-86,4)	(-171,1)	(28,0)	(-45,0)	(-170,0)	(1,0)	(1,0)	(1,0)	(1,0)	
L1D 87>	(-87,91)	(2,1)	(1,25)	(-172,0)	(256,16)	(-91,1)	(87,0)	(-86,0)	(84,3)	(0,1)	(18,1)	(3,0)	(1,0)	(1,0)	(1,0)	(1,0)	
L1D 88>	(0,27)	(1,35)	(14,3)	(20,4)	(19,5)	(-87,12)	(94,1)	(5,15)	(-88,28)	(-173,3)	(28,1)	(-414,1)	(-206,1)	(-175,9)	(-196,1)	(-136,1)	
L1D 89>	(1,127)	(-89,19)	(10,10)	(101,1)	(0,36)	(18,7)	(-177,10)	(2,5)	(5,12)	(24,3)	(120,2)	(-176,7)	(20,1)	(-416,1)	(-97,1)	(6,1)	
L1D 90>	(0,4)	(1,90)	(108,1)	(14,1)	(256,1)	(-90,2)	(28,0)	(-1,5)	(4,0)	(-179,2)	(-178,0)	(20,0)	(3,1)	(1,0)	(1,0)	(1,0)	
L1D 91>	(84,95)	(5,3)	(48,1)	(115,1)	(14,0)	(1,4)	(-180,0)	(0,3)	(18,0)	(-402,0)	(-91,68)	(-418,0)	(19,0)	(24,0)	(-92,0)	(-181,3)	
L1D 92>	(-92,105)	(-1,2)	(0,4)	(1,3)	(-467,1)	(-61,1)	(5,2)	(-91,3)	(44,1)	(-23,1)	(-138,1)	(122,1)	(301,0)	(1,0)	(1,0)	(1,0)	
L1D 93>	(-93,76)	(0,33)	(1,9)	(-97,16)	(-184,0)	(-68,2)	(129,0)	(-1,1)	(-185,0)	(-69,1)	(5,1)	(-39,0)	(18,0)	(-10,0)	(1,0)	(1,0)	
L1D 94>	(0,67)	(1,37)	(2,4)	(-187,11)	(-185,2)	(5,9)	(-186,6)	(-94,23)	(-330,1)	(3,4)	(40,1)	(-114,2)	(38,1)	(-1,3)	(-6,2)	(-93,8)	
L1D 95>	(1,81)	(18,9)	(5,22)	(17,2)	(0,43)	(3,7)	(24,2)	(-432,1)	(4,1)	(-2,1)	(-95,21)	(2,2)	(16,1)	(45,1)	(-55,1)	(-189,13)	
L1D 96>	(1,70)	(-105,29)	(-189,2)	(-3,35)	(-20,0)	(-96,9)	(0,5)	(-190,0)	(-95,1)	(-191,2)	(5,0)	(-64,0)	(17,0)	(-426,0)	(1,0)	(1,0)	
L1D 97>	(1,45)	(0,70)	(-170,1)	(3,1)	(-1,3)	(-69,4)	(-97,7)	(5,2)	(-193,0)	(-68,3)	(-192,0)	(10,0)	(1,0)	(1,0)	(1,0)	(1,0)	
L1D 98>	(0,113)	(-262,1)	(-99,114)	(-69,1)	(-98,35)	(-91,1)	(-195,1)	(-1,0)	(-70,4)	(-95,0)	(1,0)	(1,0)	(1,0)	(1,0)	(1,0)	(1,0)	
L1D 99>	(-98,67)	(-46,64)	(0,3)	(-197,0)	(-99,7)	(-196,1)	(18,1)	(5,1)	(7,0)	(3,0)	(30,0)	(-1,0)	(14,0)	(1,0)	(1,0)	(1,0)	
L1D 100>	(-46,102)	(-122,1)	(0,1)	(-197,1)	(-1,1)	(-5,0)	(5,0)	(-224,0)	(1,0)	(1,0)	(1,0)	(1,0)	(1,0)	(1,0)	(1,0)	(1,0)	
L1D 101>	(1,67)	(5,46)	(0,47)	(-2,16)	(14,3)	(-101,8)	(-201,5)	(3,24)	(-200,8)	(-102,2)	(-1,11)	(17,6)	(16,1)	(10,1)	(-103,1)	(18,5)	
L1D 102>	(0,6)	(7,64)	(1,6)	(313,1)	(-102,6)	(14,0)	(-5,1)	(6,1)	(19,0)	(-203,2)	(9,4)	(5,1)	(3,0)	(-13,0)	(10,0)	(-469,0)	
[...]
L1D 350>	(5,4)	(4,3)	(1,5)	(6,1)	(-350,3)	(-316,1)	(-234,1)	(-304,1)	(-282,2)	(0,5)	(-370,1)	(-349,4)	(28,1)	(-415,1)	(-56,1)	(131,1)	
L1D 351>	(0,10)	(1,7)	(20,1)	(-351,2)	(-288,1)	(-292,1)	(-232,1)	(5,2)	(-1,1)	(-218,1)	(3,1)	(-180,1)	(-417,1)	(1,0)	(1,0)	(1,0)	
L1D 352>	(1,9)	(-1,1)	(2,2)	(-292,1)	(6,1)	(-414,1)	(110,1)	(-290,1)	(0,5)	(-352,3)	(-351,3)	(-44,1)	(-5,1)	(-296,1)	(5,1)	(40,1)	
L1D 353>	(1,11)	(0,8)	(-353,7)	(4,4)	(-292,1)	(-413,1)	(-268,7)	(20,1)	(-227,1)	(-334,1)	(-1,1)	(120,1)	(-409,1)	(8,1)	(-223,1)	(-198,1)	
L1D 354>	(2,4)	(1,8)	(-246,1)	(4,1)	(-1,2)	(-414,1)	(-191,1)	(0,7)	(-153,1)	(-354,4)	(-198,1)	(-50,1)	(3,1)	(-415,1)	(-234,1)	(-81,1)	
L1D 355>	(1,18)	(14,1)	(4,2)	(-268,4)	(-355,2)	(-350,1)	(-414,3)	(2,1)	(0,2)	(-7,1)	(5,1)	(-132,1)	(-282,1)	(-266,1)	(123,1)	(-325,1)	
L1D 356>	(14,11)	(4,3)	(120,1)	(1,11)	(97,1)	(0,6)	(-13,1)	(-218,1)	(-300,1)	(-355,2)	(-356,8)	(-298,1)	(-101,1)	(-334,1)	(-458,1)	(-272,1)	
L1D 357>	(1,10)	(0,10)	(-1,1)	(4,1)	(-414,2)	(-2,1)	(-377,1)	(40,1)	(100,1)	(-172,1)	(-357,2)	(-415,2)	(14,5)	(118,2)	(-208,1)	(-44,1)	
L1D 358>	(-358,4)	(-270,1)	(1,11)	(4,1)	(20,1)	(2,2)	(0,6)	(-415,1)	(12,1)	(-357,1)	(-257,1)	(-144,1)	(5,2)	(-290,1)	(14,2)	(-361,1)	
L1D 359>	(-32,7)	(1,13)	(4,2)	(0,7)	(-1,1)	(5,1)	(-412,1)	(-359,3)	(-276,1)	(-98,1)	(-262,1)	(-328,1)	(-495,1)	(-474,1)	(-13,1)	(1,0)	
L1D 360>	(1,13)	(0,4)	(-417,1)	(-48,1)	(2,1)	(-214,1)	(-414,2)	(3,1)	(-103,1)	(-268,1)	(-10,2)	(109,1)	(-320,1)	(-359,2)	(-228,1)	(-360,1)	
L1D 361>	(0,13)	(1,13)	(3,1)	(-362,1)	(-252,3)	(-344,1)	(-272,2)	(4,1)	(-1,1)	(2,1)	(-360,1)	(-258,1)	(-238,1)	(-9,1)	(1,0)	(1,0)	
L1D 362>	(-104,1)	(1,8)	(5,2)	(0,7)	(-310,2)	(-1,1)	(-414,1)	(-363,2)	(19,1)	(4,2)	(-362,4)	(-312,1)	(20,2)	(-415,1)	(-156,1)	(107,1)	
L1D 363>	(1,14)	(2,2)	(-363,3)	(-188,1)	(-336,1)	(0,5)	(-369,1)	(5,2)	(-2,1)	(-249,1)	(-232,1)	(-312,1)	(-138,1)	(-416,1)	(1,0)	(1,0)	
L1D 364>	(1,13)	(28,1)	(-413,1)	(0,9)	(2,1)	(-364,9)	(-227,1)	(-276,1)	(-363,5)	(-385,1)	(6,1)	(-308,1)	(-14,1)	(1,0)	(1,0)	(1,0)	
L1D 365>	(1,15)	(0,21)	(-413,1)	(-415,1)	(2,1)	(-68,1)	(100,1)	(-418,1)	(-365,3)	(-324,2)	(-379,1)	(-348,1)	(1,0)	(1,0)	(1,0)	(1,0)	
L1D 366>	(-1,1)	(1,8)	(-366,6)	(8,1)	(-365,5)	(0,9)	(-415,1)	(-388,1)	(99,1)	(5,1)	(-190,1)	(-347,1)	(10,1)	(-277,1)	(-158,1)	(1,0)	
L1D 367>	(1,14)	(-406,1)	(0,3)	(-426,1)	(-367,4)	(-286,1)	(-396,1)	(-322,1)	(-332,1)	(-158,1)	(-415,1)	(20,1)	(1,0)	(1,0)	(1,0)	(1,0)	
L1D 368>	(-405,1)	(1,10)	(-357,10)	(-243,1)	(3,1)	(0,9)	(-368,4)	(-413,1)	(14,2)	(20,1)	(-367,4)	(8,1)	(-234,1)	(-233,1)	(-1,1)	(-226,1)	
L1D 369>	(1,10)	(0,8)	(-339,1)	(-248,3)	(-282,1)	(-412,1)	(-358,1)	(6,1)	(-1,1)	(-369,6)	(-228,1)	(20,1)	(-324,1)	(-352,1)	(-414,1)	(-415,2)	
L1D 370>	(-414,2)	(1,15)	(0,8)	(2,3)	(-248,1)	(-309,2)	(-10,1)	(-384,1)	(-370,10)	(-52,1)	(-325,1)	(-416,2)	(-127,1)	(92,1)	(1,0)	(1,0)	
L1D 371>	(-248,7)	(2,1)	(1,7)	(0,13)	(20,1)	(3,1)	(4,1)	(-10,1)	(-371,3)	(-234,1)	(-328,1)	(-229,1)	(-383,1)	(-228,1)	(91,1)	(-251,1)	
L1D 372>	(2,6)	(1,8)	(4,16)	(0,10)	(-370,1)	(8,6)	(-414,1)	(-10,1)	(-372,6)	(-248,1)	(-134,1)	(30,1)	(87,1)	(-371,5)	(-246,1)	(-415,1)	
L1D 373>	(0,11)	(1,16)	(-229,1)	(81,1)	(-373,2)	(-94,1)	(-372,1)	(8,1)	(-410,1)	(-334,1)	(-228,1)	(-248,1)	(9,1)	(20,2)	(5,1)	(4,1)	
L1D 374>	(20,2)	(1,8)	(4,2)	(2,3)	(0,5)	(-375,1)	(-149,17)	(5,2)	(6,1)	(-374,4)	(-354,1)	(-373,3)	(-348,1)	(12,1)	(8,3)	(-248,1)	
L1D 375>	(0,8)	(-252,3)	(4,2)	(1,8)	(5,1)	(6,1)	(-375,3)	(-402,1)	(-96,1)	(14,1)	(24,1)	(1,0)	(1,0)	(1,0)	(1,0)	(1,0)	
L1D 376>	(1,13)	(5,5)	(2,1)	(4,4)	(8,1)	(0,9)	(-248,1)	(6,1)	(20,2)	(-375,4)	(-308,1)	(-10,2)	(-237,1)	(-118,1)	(-376,1)	(1,0)	
L1D 377>	(1,9)	(0,4)	(20,3)	(4,4)	(14,2)	(-232,1)	(-252,1)	(8,1)	(-1,3)	(-377,7)	(-233,1)	(3,1)	(-378,1)	(-416,1)	(-381,1)	(-415,1)	
L1D 378>	(1,14)	(-342,1)	(-252,2)	(14,3)	(-376,1)	(8,5)	(-406,2)	(0,6)	(-7,1)	(-415,1)	(-303,1)	(-313,1)	(-378,8)	(-320,1)	(20,1)	(4,1)	
L1D 379>	(-155,1)	(1,11)	(0,5)	(2,2)	(4,1)	(20,1)	(-7,1)	(-3,1)	(-414,2)	(-360,1)	(-339,1)	(-72,1)	(72,1)	(-415,1)	(5,1)	(-6,1)	
L1D 380>	(1,9)	(-222,1)	(0,6)	(-413,2)	(-1,1)	(2,2)	(68,1)	(14,1)	(-303,3)	(-379,2)	(12,2)	(4,2)	(8,5)	(-415,1)	(-380,3)	(-7,1)	
L1D 381>	(0,14)	(1,12)	(2,4)	(14,1)	(-1,2)	(-347,1)	(3,1)	(20,1)	(-417,1)	(-186,1)	(1,0)	(1,0)	(1,0)	(1,0)	(1,0)	(1,0)	
L1D 382>	(1,16)	(0,11)	(19,2)	(14,1)	(5,2)	(4,8)	(-275,1)	(-157,1)	(20,2)	(-290,1)	(2,2)	(-381,6)	(-414,1)	(-383,1)	(-110,1)	(12,1)	
L1D 383>	(-412,1)	(1,10)	(4,4)	(-383,1)	(0,12)	(-385,1)	(19,1)	(24,3)	(-282,1)	(-228,1)	(-415,1)	(14,1)	(-384,1)	(8,1)	(-417,1)	(65,1)	
L1D 384>	(1,11)	(-296,1)	(-135,1)	(2,2)	(4,4)	(0,10)	(19,1)	(-126,1)	(-414,1)	(-383,9)	(20,1)	(-384,3)	(3,1)	(-413,1)	(-374,1)	(-416,2)	
L1D 385>	(14,2)	(1,21)	(0,12)	(8,1)	(3,12)	(-422,1)	(-386,1)	(-366,1)	(-282,1)	(5,2)	(-270,1)	(-413,1)	(-385,10)	(-322,1)	(-329,1)	(-414,1)	
L1D 386>	(0,0)	(3,0)	(-386,102)	(-417,59)	(-426,2)	(-422,0)	(16,0)	(1,0)	(1,0)	(1,0)	(1,0)	(1,0)	(1,0)	(1,0)	(1,0)	(1,0)	
L1D 387>	(1,21)	(0,22)	(5,2)	(4,5)	(-379,1)	(-387,13)	(-385,1)	(-371,1)	(-203,1)	(-7,1)	(14,2)	(-266,1)	(-245,1)	(8,1)	(-358,1)	(1,0)	
L1D 388>	(-429,1)	(1,10)	(-135,1)	(2,11)	(-35,1)	(-14,1)	(5,1)	(4,4)	(14,2)	(20,13)	(52,1)	(0,7)	(-388,9)	(-361,1)	(-311,1)	(-224,1)	
L1D 389>	(0,18)	(1,19)	(4,2)	(6,1)	(-389,15)	(-274,1)	(2,2)	(5,1)	(-264,1)	(-414,1)	(14,1)	(-122,1)	(-16,1)	(53,1)	(-416,1)	(-320,1)	
L1D 390>	(0,7)	(4,20)	(1,6)	(2,8)	(52,1)	(20,3)	(-413,1)	(-390,13)	(-157,1)	(48,1)	(-300,1)	(46,1)	(-415,1)	(-264,2)	(-104,1)	(14,1)	
L1D 391>	(4,5)	(1,23)	(-339,1)	(0,13)	(45,1)	(-317,1)	(2,1)	(-232,1)	(-367,1)	(-50,1)	(-415,1)	(-467,1)	(-437,1)	(-391,3)	(-450,1)	(35,1)	
L1D 392>	(1,10)	(20,5)	(4,12)	(0,6)	(-414,1)	(-392,4)	(8,1)	(-391,6)	(-415,1)	(14,3)	(2,2)	(-439,1)	(1,0)	(1,0)	(1,0)	(1,0)	
L1D 393>	(1,22)	(-412,1)	(14,1)	(0,12)	(-289,1)	(-393,11)	(-425,1)	(-7,1)	(-365,1)	(3,1)	(4,1)	(-415,1)	(-389,1)	(1,0)	(1,0)	(1,0)	
L1D 394>	(4,18)	(2,3)	(19,1)	(1,12)	(0,10)	(-414,1)	(30,1)	(-394,11)	(20,1)	(-305,1)	(41,1)	(-282,1)	(-298,1)	(-233,1)	(42,1)	(-7,1)	
L1D 395>	(1,26)	(-7,7)	(-388,1)	(0,17)	(3,4)	(-295,1)	(-413,1)	(-309,1)	(-395,11)	(-356,1)	(-331,1)	(4,2)	(-239,1)	(-289,1)	(14,2)	(-415,1)	
L1D 396>	(2,2)	(4,6)	(0,16)	(1,10)	(3,2)	(-394,1)	(-396,15)	(-395,4)	(-20,4)	(39,1)	(-268,1)	(-6,1)	(-378,1)	(-216,1)	(-128,1)	(-482,1)	
L1D 397>	(1,20)	(2,1)	(-330,1)	(0,17)	(-234,1)	(4,10)	(-398,1)	(-413,2)	(19,1)	(24,1)	(-397,9)	(-2,1)	(20,1)	(-400,1)	(37,1)	(35,1)	
L1D 398>	(1,8)	(2,12)	(0,14)	(20,4)	(-458,1)	(-1,1)	(-415,1)	(-413,1)	(-444,1)	(-398,9)	(-362,1)	(-432,1)	(4,1)	(-397,6)	(34,1)	(-382,1)	
L1D 399>	(1,15)	(0,10)	(-413,4)	(-414,2)	(4,7)	(28,1)	(-415,1)	(-399,5)	(-464,1)	(-417,1)	(-252,1)	(-244,1)	(33,1)	(1,0)	(1,0)	(1,0)	
L1D 400>	(1,21)	(0,10)	(-142,1)	(-315,2)	(-293,2)	(20,2)	(29,1)	(2,2)	(-400,3)	(8,2)	(-415,2)	(4,2)	(-392,1)	(-235,1)	(-458,1)	(-399,3)	
L1D 401>	(0,16)	(1,31)	(-412,1)	(-401,14)	(-460,1)	(2,1)	(4,11)	(-414,1)	(-402,2)	(-360,1)	(-390,1)	(8,1)	(-415,1)	(-418,1)	(1,0)	(1,0)	
L1D 402>	(1,12)	(-407,1)	(-1,1)	(-402,14)	(4,6)	(2,1)	(23,1)	(0,13)	(24,1)	(20,1)	(28,1)	(-199,1)	(-342,1)	(-418,1)	(-450,1)	(8,1)	
L1D 403>	(1,22)	(0,18)	(-192,1)	(3,1)	(-413,3)	(2,2)	(4,3)	(-281,1)	(-419,3)	(-405,1)	(-403,5)	(-7,1)	(8,2)	(-435,1)	(-359,1)	(18,1)	
L1D 404>	(1,6)	(4,4)	(-329,1)	(-433,2)	(-442,1)	(0,3)	(-466,1)	(2,2)	(-401,1)	(-414,2)	(8,3)	(14,2)	(-404,2)	(5,3)	(20,1)	(-154,1)	
L1D 405>	(2,1)	(1,20)	(4,4)	(-414,2)	(0,3)	(-405,4)	(-411,1)	(-415,1)	(-408,1)	(-1,1)	(1,0)	(1,0)	(1,0)	(1,0)	(1,0)	(1,0)	
L1D 406>	(0,10)	(4,9)	(1,6)	(-7,2)	(3,1)	(-406,3)	(2,1)	(-6,2)	(68,1)	(8,1)	(-336,1)	(5,1)	(1,0)	(1,0)	(1,0)	(1,0)	
L1D 407>	(1,14)	(4,5)	(0,7)	(5,3)	(-415,1)	(-20,1)	(6,1)	(-407,1)	(1,0)	(1,0)	(1,0)	(1,0)	(1,0)	(1,0)	(1,0)	(1,0)	
L1D 408>	(1,9)	(-303,4)	(20,2)	(3,2)	(0,3)	(-20,1)	(2,2)	(-408,5)	(14,1)	(4,3)	(-415,2)	(-17,1)	(-407,1)	(17,1)	(1,0)	(1,0)	
L1D 409>	(-407,1)	(1,12)	(4,27)	(0,12)	(-409,3)	(-166,1)	(-421,1)	(-416,1)	(1,0)	(1,0)	(1,0)	(1,0)	(1,0)	(1,0)	(1,0)	(1,0)	
L1D 410>	(1,12)	(20,2)	(19,1)	(0,6)	(5,1)	(-488,1)	(2,1)	(-419,1)	(-387,1)	(4,1)	(-410,3)	(-418,1)	(14,2)	(-409,1)	(-411,2)	(-408,1)	
L1D 411>	(-105,112)	(0,0)	(-411,87)	(4,0)	(-412,0)	(-148,0)	(1,0)	(1,0)	(1,0)	(1,0)	(1,0)	(1,0)	(1,0)	(1,0)	(1,0)	(1,0)	
L1D 412>	(0,25)	(-412,56)	(1,67)	(-411,1)	(-175,1)	(4,4)	(14,3)	(20,3)	(2,4)	(32,1)	(-149,66)	(5,1)	(-1,1)	(6,2)	(-296,1)	(-406,1)	
L1D 413>	(0,66)	(1,76)	(-413,55)	(-414,27)	(-412,2)	(-187,1)	(-424,2)	(2,5)	(-378,1)	(-454,1)	(-402,1)	(3,4)	(4,2)	(-242,1)	(-474,1)	(-222,1)	
L1D 414>	(-413,5)	(4,3)	(3,1)	(-428,1)	(-414,100)	(1,50)	(0,29)	(-374,1)	(2,4)	(-438,1)	(-434,1)	(-486,0)	(-6,0)	(-326,0)	(-186,0)	(-20,0)	
L1D 415>	(-414,3)	(1,32)	(-415,112)	(0,127)	(-244,1)	(-334,1)	(3,2)	(-416,45)	(-2,0)	(-268,0)	(-456,0)	(26,0)	(2,1)	(-392,0)	(1,0)	(1,0)	
L1D 416>	(-376,1)	(-1,3)	(1,35)	(-458,1)	(-418,1)	(-415,47)	(-446,1)	(-440,1)	(-416,124)	(0,41)	(-364,1)	(-448,1)	(2,3)	(-417,1)	(-497,1)	(-284,1)	
L1D 417>	(1,6)	(-1,4)	(0,60)	(-417,83)	(-405,1)	(-457,1)	(-416,6)	(-419,2)	(-418,5)	(-225,1)	(-421,1)	(-4,1)	(-3,4)	(-251,0)	(-2,5)	(-411,0)	
L1D 418>	(1,4)	(0,17)	(-266,1)	(-105,1)	(-419,2)	(-1,1)	(-241,1)	(-441,1)	(-493,1)	(-418,14)	(-199,1)	(-424,1)	(-378,1)	(-350,1)	(-305,1)	(-32,1)	
L1D 419>	(3,2)	(4,7)	(-121,1)	(-156,6)	(1,5)	(5,3)	(0,9)	(-419,4)	(-347,1)	(-423,1)	(-461,1)	(18,1)	(1,0)	(1,0)	(1,0)	(1,0)	
L1D 420>	(-157,124)	(14,1)	(-245,1)	(-1,2)	(1,3)	(0,9)	(20,1)	(3,2)	(-420,2)	(1,0)	(1,0)	(1,0)	(1,0)	(1,0)	(1,0)	(1,0)	
L1D 421>	(1,8)	(0,4)	(-421,5)	(4,3)	(14,1)	(-425,1)	(-428,1)	(1,0)	(1,0)	(1,0)	(1,0)	(1,0)	(1,0)	(1,0)	(1,0)	(1,0)	
L1D 422>	(2,2)	(0,4)	(1,1)	(4,1)	(1,0)	(1,0)	(1,0)	(1,0)	(1,0)	(1,0)	(1,0)	(1,0)	(1,0)	(1,0)	(1,0)	(1,0)	
L1D 423>	(5,2)	(19,1)	(24,1)	(1,3)	(4,4)	(0,1)	(3,1)	(-1,1)	(1,0)	(1,0)	(1,0)	(1,0)	(1,0)	(1,0)	(1,0)	(1,0)	
L1D 424>	(2,2)	(1,3)	(0,1)	(4,3)	(6,1)	(14,2)	(1,0)	(1,0)	(1,0)	(1,0)	(1,0)	(1,0)	(1,0)	(1,0)	(1,0)	(1,0)	
L1D 425>	(1,2)	(4,2)	(6,1)	(0,1)	(-429,2)	(1,0)	(1,0)	(1,0)	(1,0)	(1,0)	(1,0)	(1,0)	(1,0)	(1,0)	(1,0)	(1,0)	
L1D 426>	(2,3)	(14,1)	(-206,1)	(1,0)	(1,0)	(1,0)	(1,0)	(1,0)	(1,0)	(1,0)	(1,0)	(1,0)	(1,0)	(1,0)	(1,0)	(1,0)	
L1D 427>	(5,1)	(4,4)	(0,2)	(7,1)	(2,1)	(1,0)	(1,0)	(1,0)	(1,0)	(1,0)	(1,0)	(1,0)	(1,0)	(1,0)	(1,0)	(1,0)	
L1D 428>	(3,1)	(14,1)	(1,2)	(28,1)	(-6,1)	(2,1)	(0,1)	(1,0)	(1,0)	(1,0)	(1,0)	(1,0)	(1,0)	(1,0)	(1,0)	(1,0)	
L1D 429>	(4,2)	(0,1)	(1,2)	(-14,11)	(1,0)	(1,0)	(1,0)	(1,0)	(1,0)	(1,0)	(1,0)	(1,0)	(1,0)	(1,0)	(1,0)	(1,0)	
L1D 430>	(4,2)	(2,5)	(-7,1)	(-20,2)	(-315,1)	(20,1)	(8,1)	(1,0)	(1,0)	(1,0)	(1,0)	(1,0)	(1,0)	(1,0)	(1,0)	(1,0)	
L1D 431>	(-2,1)	(0,1)	(1,1)	(1,0)	(1,0)	(1,0)	(1,0)	(1,0)	(1,0)	(1,0)	(1,0)	(1,0)	(1,0)	(1,0)	(1,0)	(1,0)	
L1D 432>	(5,1)	(2,1)	(-478,2)	(1,0)	(1,0)	(1,0)	(1,0)	(1,0)	(1,0)	(1,0)	(1,0)	(1,0)	(1,0)	(1,0)	(1,0)	(1,0)	
L1D 433>	(2,1)	(-7,2)	(4,2)	(0,1)	(-1,1)	(-348,1)	(1,0)	(1,0)	(1,0)	(1,0)	(1,0)	(1,0)	(1,0)	(1,0)	(1,0)	(1,0)	
L1D 434>	(20,2)	(0,5)	(-6,1)	(4,1)	(1,1)	(-197,2)	(-12,1)	(14,1)	(2,1)	(-415,1)	(3,2)	(1,0)	(1,0)	(1,0)	(1,0)	(1,0)	
L1D 435>	(14,1)	(4,3)	(0,2)	(1,0)	(1,0)	(1,0)	(1,0)	(1,0)	(1,0)	(1,0)	(1,0)	(1,0)	(1,0)	(1,0)	(1,0)	(1,0)	
L1D 436>	(28,1)	(2,3)	(20,2)	(1,2)	(14,1)	(0,1)	(1,0)	(1,0)	(1,0)	(1,0)	(1,0)	(1,0)	(1,0)	(1,0)	(1,0)	(1,0)	
L1D 437>	(0,3)	(4,7)	(2,1)	(-437,1)	(-192,1)	(1,0)	(1,0)	(1,0)	(1,0)	(1,0)	(1,0)	(1,0)	(1,0)	(1,0)	(1,0)	(1,0)	
L1D 438>	(-351,1)	(2,1)	(-1,1)	(4,2)	(-43,1)	(1,2)	(14,2)	(5,1)	(-78,1)	(-484,1)	(1,0)	(1,0)	(1,0)	(1,0)	(1,0)	(1,0)	
L1D 439>	(4,1)	(1,6)	(5,3)	(1,0)	(1,0)	(1,0)	(1,0)	(1,0)	(1,0)	(1,0)	(1,0)	(1,0)	(1,0)	(1,0)	(1,0)	(1,0)	
L1D 440>	(-488,2)	(2,6)	(20,1)	(1,2)	(0,4)	(4,1)	(3,1)	(-424,1)	(1,0)	(1,0)	(1,0)	(1,0)	(1,0)	(1,0)	(1,0)	(1,0)	
L1D 441>	(0,2)	(14,1)	(-440,2)	(4,1)	(-1,1)	(1,1)	(1,0)	(1,0)	(1,0)	(1,0)	(1,0)	(1,0)	(1,0)	(1,0)	(1,0)	(1,0)	
L1D 442>	(1,5)	(14,6)	(4,3)	(0,2)	(2,3)	(20,1)	(1,0)	(1,0)	(1,0)	(1,0)	(1,0)	(1,0)	(1,0)	(1,0)	(1,0)	(1,0)	
L1D 443>	(4,3)	(2,1)	(1,2)	(0,2)	(1,0)	(1,0)	(1,0)	(1,0)	(1,0)	(1,0)	(1,0)	(1,0)	(1,0)	(1,0)	(1,0)	(1,0)	
L1D 444>	(1,2)	(20,1)	(0,1)	(1,0)	(1,0)	(1,0)	(1,0)	(1,0)	(1,0)	(1,0)	(1,0)	(1,0)	(1,0)	(1,0)	(1,0)	(1,0)	
L1D 445>	(-445,1)	(0,1)	(4,3)	(-9,1)	(1,1)	(1,0)	(1,0)	(1,0)	(1,0)	(1,0)	(1,0)	(1,0)	(1,0)	(1,0)	(1,0)	(1,0)	
L1D 446>	(-426,1)	(0,1)	(5,1)	(14,1)	(1,0)	(1,0)	(1,0)	(1,0)	(1,0)	(1,0)	(1,0)	(1,0)	(1,0)	(1,0)	(1,0)	(1,0)	
L1D 447>	(4,5)	(1,3)	(-7,1)	(0,1)	(-6,1)	(1,0)	(1,0)	(1,0)	(1,0)	(1,0)	(1,0)	(1,0)	(1,0)	(1,0)	(1,0)	(1,0)	
L1D 448>	(1,4)	(-448,3)	(0,1)	(-504,1)	(1,0)	(1,0)	(1,0)	(1,0)	(1,0)	(1,0)	(1,0)	(1,0)	(1,0)	(1,0)	(1,0)	(1,0)	
L1D 449>	(4,1)	(1,2)	(0,1)	(1,0)	(1,0)	(1,0)	(1,0)	(1,0)	(1,0)	(1,0)	(1,0)	(1,0)	(1,0)	(1,0)	(1,0)	(1,0)	
L1D 450>	(4,1)	(3,2)	(0,1)	(1,0)	(1,0)	(1,0)	(1,0)	(1,0)	(1,0)	(1,0)	(1,0)	(1,0)	(1,0)	(1,0)	(1,0)	(1,0)	
L1D 451>	(4,18)	(0,4)	(5,1)	(3,1)	(-44,1)	(1,0)	(1,0)	(1,0)	(1,0)	(1,0)	(1,0)	(1,0)	(1,0)	(1,0)	(1,0)	(1,0)	
L1D 452>	(3,1)	(-10,1)	(0,1)	(1,0)	(1,0)	(1,0)	(1,0)	(1,0)	(1,0)	(1,0)	(1,0)	(1,0)	(1,0)	(1,0)	(1,0)	(1,0)	
L1D 453>	(4,3)	(1,3)	(0,2)	(-360,2)	(1,0)	(1,0)	(1,0)	(1,0)	(1,0)	(1,0)	(1,0)	(1,0)	(1,0)	(1,0)	(1,0)	(1,0)	
L1D 454>	(1,1)	(0,1)	(1,0)	(1,0)	(1,0)	(1,0)	(1,0)	(1,0)	(1,0)	(1,0)	(1,0)	(1,0)	(1,0)	(1,0)	(1,0)	(1,0)	
L1D 455>	(4,2)	(1,2)	(0,1)	(42,1)	(1,0)	(1,0)	(1,0)	(1,0)	(1,0)	(1,0)	(1,0)	(1,0)	(1,0)	(1,0)	(1,0)	(1,0)	
L1D 456>	(6,2)	(-3,60)	(-456,71)	(-1,1)	(1,3)	(0,8)	(-444,1)	(5,1)	(-278,1)	(1,0)	(1,0)	(1,0)	(1,0)	(1,0)	(1,0)	(1,0)	
L1D 457>	(4,2)	(0,2)	(-3,2)	(-466,1)	(1,0)	(1,0)	(1,0)	(1,0)	(1,0)	(1,0)	(1,0)	(1,0)	(1,0)	(1,0)	(1,0)	(1,0)	
L1D 458>	(1,3)	(-1,2)	(-100,1)	(0,1)	(47,1)	(1,0)	(1,0)	(1,0)	(1,0)	(1,0)	(1,0)	(1,0)	(1,0)	(1,0)	(1,0)	(1,0)	
L1D 459>	(0,2)	(-355,1)	(1,4)	(4,4)	(1,0)	(1,0)	(1,0)	(1,0)	(1,0)	(1,0)	(1,0)	(1,0)	(1,0)	(1,0)	(1,0)	(1,0)	
L1D 460>	(3,1)	(-7,3)	(-464,1)	(1,2)	(-82,1)	(1,0)	(1,0)	(1,0)	(1,0)	(1,0)	(1,0)	(1,0)	(1,0)	(1,0)	(1,0)	(1,0)	
L1D 461>	(1,2)	(4,7)	(0,1)	(1,0)	(1,0)	(1,0)	(1,0)	(1,0)	(1,0)	(1,0)	(1,0)	(1,0)	(1,0)	(1,0)	(1,0)	(1,0)	
L1D 462>	(1,1)	(5,1)	(0,1)	(3,1)	(1,0)	(1,0)	(1,0)	(1,0)	(1,0)	(1,0)	(1,0)	(1,0)	(1,0)	(1,0)	(1,0)	(1,0)	
L1D 463>	(5,1)	(4,4)	(-360,1)	(1,1)	(1,0)	(1,0)	(1,0)	(1,0)	(1,0)	(1,0)	(1,0)	(1,0)	(1,0)	(1,0)	(1,0)	(1,0)	
L1D 464>	(-464,58)	(0,2)	(3,1)	(-1,1)	(-10,1)	(1,1)	(4,2)	(1,0)	(1,0)	(1,0)	(1,0)	(1,0)	(1,0)	(1,0)	(1,0)	(1,0)	
L1D 465>	(4,1)	(-465,4)	(1,4)	(-360,3)	(1,0)	(1,0)	(1,0)	(1,0)	(1,0)	(1,0)	(1,0)	(1,0)	(1,0)	(1,0)	(1,0)	(1,0)	
L1D 466>	(0,3)	(-2,1)	(1,2)	(1,0)	(1,0)	(1,0)	(1,0)	(1,0)	(1,0)	(1,0)	(1,0)	(1,0)	(1,0)	(1,0)	(1,0)	(1,0)	
L1D 467>	(4,7)	(0,1)	(1,2)	(1,0)	(1,0)	(1,0)	(1,0)	(1,0)	(1,0)	(1,0)	(1,0)	(1,0)	(1,0)	(1,0)	(1,0)	(1,0)	
L1D 468>	(1,2)	(1,0)	(1,0)	(1,0)	(1,0)	(1,0)	(1,0)	(1,0)	(1,0)	(1,0)	(1,0)	(1,0)	(1,0)	(1,0)	(1,0)	(1,0)	
L1D 469>	(4,2)	(0,2)	(1,2)	(-467,1)	(-412,1)	(1,0)	(1,0)	(1,0)	(1,0)	(1,0)	(1,0)	(1,0)	(1,0)	(1,0)	(1,0)	(1,0)	
L1D 470>	(-470,2)	(0,2)	(1,1)	(1,0)	(1,0)	(1,0)	(1,0)	(1,0)	(1,0)	(1,0)	(1,0)	(1,0)	(1,0)	(1,0)	(1,0)	(1,0)	
L1D 471>	(4,4)	(1,2)	(0,2)	(1,0)	(1,0)	(1,0)	(1,0)	(1,0)	(1,0)	(1,0)	(1,0)	(1,0)	(1,0)	(1,0)	(1,0)	(1,0)	
L1D 472>	(0,3)	(5,1)	(-400,1)	(-98,1)	(3,1)	(1,0)	(1,0)	(1,0)	(1,0)	(1,0)	(1,0)	(1,0)	(1,0)	(1,0)	(1,0)	(1,0)	
L1D 473>	(4,3)	(-416,1)	(1,0)	(1,0)	(1,0)	(1,0)	(1,0)	(1,0)	(1,0)	(1,0)	(1,0)	(1,0)	(1,0)	(1,0)	(1,0)	(1,0)	
L1D 474>	(0,1)	(4,1)	(1,0)	(1,0)	(1,0)	(1,0)	(1,0)	(1,0)	(1,0)	(1,0)	(1,0)	(1,0)	(1,0)	(1,0)	(1,0)	(1,0)	
L1D 475>	(4,6)	(1,2)	(-344,1)	(1,0)	(1,0)	(1,0)	(1,0)	(1,0)	(1,0)	(1,0)	(1,0)	(1,0)	(1,0)	(1,0)	(1,0)	(1,0)	
L1D 476>	(-476,2)	(1,1)	(1,0)	(1,0)	(1,0)	(1,0)	(1,0)	(1,0)	(1,0)	(1,0)	(1,0)	(1,0)	(1,0)	(1,0)	(1,0)	(1,0)	
L1D 477>	(4,16)	(0,4)	(1,2)	(2,1)	(1,0)	(1,0)	(1,0)	(1,0)	(1,0)	(1,0)	(1,0)	(1,0)	(1,0)	(1,0)	(1,0)	(1,0)	
L1D 478>	(2,1)	(-10,2)	(1,2)	(4,3)	(1,0)	(1,0)	(1,0)	(1,0)	(1,0)	(1,0)	(1,0)	(1,0)	(1,0)	(1,0)	(1,0)	(1,0)	
L1D 479>	(4,8)	(0,5)	(-470,1)	(-479,1)	(-467,1)	(1,0)	(1,0)	(1,0)	(1,0)	(1,0)	(1,0)	(1,0)	(1,0)	(1,0)	(1,0)	(1,0)	
L1D 480>	(-480,2)	(0,1)	(4,1)	(-470,2)	(1,0)	(1,0)	(1,0)	(1,0)	(1,0)	(1,0)	(1,0)	(1,0)	(1,0)	(1,0)	(1,0)	(1,0)	
L1D 481>	(3,3)	(4,25)	(0,3)	(1,1)	(-2,1)	(-222,1)	(1,0)	(1,0)	(1,0)	(1,0)	(1,0)	(1,0)	(1,0)	(1,0)	(1,0)	(1,0)	
L1D 482>	(0,3)	(-325,1)	(3,1)	(4,2)	(1,0)	(1,0)	(1,0)	(1,0)	(1,0)	(1,0)	(1,0)	(1,0)	(1,0)	(1,0)	(1,0)	(1,0)	
L1D 483>	(5,1)	(4,12)	(0,3)	(1,1)	(1,0)	(1,0)	(1,0)	(1,0)	(1,0)	(1,0)	(1,0)	(1,0)	(1,0)	(1,0)	(1,0)	(1,0)	
L1D 484>	(1,2)	(5,1)	(-212,1)	(-52,1)	(1,0)	(1,0)	(1,0)	(1,0)	(1,0)	(1,0)	(1,0)	(1,0)	(1,0)	(1,0)	(1,0)	(1,0)	
L1D 485>	(4,12)	(3,3)	(0,4)	(1,1)	(1,0)	(1,0)	(1,0)	(1,0)	(1,0)	(1,0)	(1,0)	(1,0)	(1,0)	(1,0)	(1,0)	(1,0)	
L1D 486>	(1,1)	(4,1)	(1,0)	(1,0)	(1,0)	(1,0)	(1,0)	(1,0)	(1,0)	(1,0)	(1,0)	(1,0)	(1,0)	(1,0)	(1,0)	(1,0)	
L1D 487>	(4,9)	(-282,1)	(1,1)	(1,0)	(1,0)	(1,0)	(1,0)	(1,0)	(1,0)	(1,0)	(1,0)	(1,0)	(1,0)	(1,0)	(1,0)	(1,0)	
L1D 488>	(-226,1)	(1,0)	(1,0)	(1,0)	(1,0)	(1,0)	(1,0)	(1,0)	(1,0)	(1,0)	(1,0)	(1,0)	(1,0)	(1,0)	(1,0)	(1,0)	
L1D 489>	(1,3)	(4,4)	(1,0)	(1,0)	(1,0)	(1,0)	(1,0)	(1,0)	(1,0)	(1,0)	(1,0)	(1,0)	(1,0)	(1,0)	(1,0)	(1,0)	
L1D 490>	(-490,1)	(1,1)	(1,0)	(1,0)	(1,0)	(1,0)	(1,0)	(1,0)	(1,0)	(1,0)	(1,0)	(1,0)	(1,0)	(1,0)	(1,0)	(1,0)	
L1D 491>	(4,2)	(0,1)	(1,0)	(1,0)	(1,0)	(1,0)	(1,0)	(1,0)	(1,0)	(1,0)	(1,0)	(1,0)	(1,0)	(1,0)	(1,0)	(1,0)	
L1D 492>	(1,1)	(-492,1)	(-10,1)	(1,0)	(1,0)	(1,0)	(1,0)	(1,0)	(1,0)	(1,0)	(1,0)	(1,0)	(1,0)	(1,0)	(1,0)	(1,0)	
L1D 493>	(1,1)	(4,3)	(1,0)	(1,0)	(1,0)	(1,0)	(1,0)	(1,0)	(1,0)	(1,0)	(1,0)	(1,0)	(1,0)	(1,0)	(1,0)	(1,0)	
L1D 494>	(5,2)	(0,2)	(1,1)	(1,0)	(1,0)	(1,0)	(1,0)	(1,0)	(1,0)	(1,0)	(1,0)	(1,0)	(1,0)	(1,0)	(1,0)	(1,0)	
L1D 495>	(0,6)	(4,2)	(-9,2)	(1,0)	(1,0)	(1,0)	(1,0)	(1,0)	(1,0)	(1,0)	(1,0)	(1,0)	(1,0)	(1,0)	(1,0)	(1,0)	
L1D 496>	(-496,1)	(1,0)	(1,0)	(1,0)	(1,0)	(1,0)	(1,0)	(1,0)	(1,0)	(1,0)	(1,0)	(1,0)	(1,0)	(1,0)	(1,0)	(1,0)	
L1D 497>	(4,6)	(-240,1)	(1,0)	(1,0)	(1,0)	(1,0)	(1,0)	(1,0)	(1,0)	(1,0)	(1,0)	(1,0)	(1,0)	(1,0)	(1,0)	(1,0)	
L1D 498>	(4,1)	(0,1)	(-416,1)	(-498,1)	(1,0)	(1,0)	(1,0)	(1,0)	(1,0)	(1,0)	(1,0)	(1,0)	(1,0)	(1,0)	(1,0)	(1,0)	
L1D 499>	(4,3)	(0,1)	(1,1)	(1,0)	(1,0)	(1,0)	(1,0)	(1,0)	(1,0)	(1,0)	(1,0)	(1,0)	(1,0)	(1,0)	(1,0)	(1,0)	
L1D 500>	(5,1)	(-260,1)	(1,0)	(1,0)	(1,0)	(1,0)	(1,0)	(1,0)	(1,0)	(1,0)	(1,0)	(1,0)	(1,0)	(1,0)	(1,0)	(1,0)	
L1D 501>	(4,1)	(-491,1)	(1,1)	(0,1)	(1,0)	(1,0)	(1,0)	(1,0)	(1,0)	(1,0)	(1,0)	(1,0)	(1,0)	(1,0)	(1,0)	(1,0)	
L1D 502>	(-10,1)	(1,1)	(0,1)	(-238,1)	(1,0)	(1,0)	(1,0)	(1,0)	(1,0)	(1,0)	(1,0)	(1,0)	(1,0)	(1,0)	(1,0)	(1,0)	
L1D 503>	(4,1)	(1,0)	(1,0)	(1,0)	(1,0)	(1,0)	(1,0)	(1,0)	(1,0)	(1,0)	(1,0)	(1,0)	(1,0)	(1,0)	(1,0)	(1,0)	
L1D 504>	(0,1)	(1,0)	(1,0)	(1,0)	(1,0)	(1,0)	(1,0)	(1,0)	(1,0)	(1,0)	(1,0)	(1,0)	(1,0)	(1,0)	(1,0)	(1,0)	
L1D 505>	(1,0)	(1,0)	(1,0)	(1,0)	(1,0)	(1,0)	(1,0)	(1,0)	(1,0)	(1,0)	(1,0)	(1,0)	(1,0)	(1,0)	(1,0)	(1,0)	
L1D 506>	(0,1)	(1,0)	(1,0)	(1,0)	(1,0)	(1,0)	(1,0)	(1,0)	(1,0)	(1,0)	(1,0)	(1,0)	(1,0)	(1,0)	(1,0)	(1,0)	
L1D 507>	(1,0)	(1,0)	(1,0)	(1,0)	(1,0)	(1,0)	(1,0)	(1,0)	(1,0)	(1,0)	(1,0)	(1,0)	(1,0)	(1,0)	(1,0)	(1,0)	
L1D 508>	(1,0)	(1,0)	(1,0)	(1,0)	(1,0)	(1,0)	(1,0)	(1,0)	(1,0)	(1,0)	(1,0)	(1,0)	(1,0)	(1,0)	(1,0)	(1,0)	
L1D 509>	(1,0)	(1,0)	(1,0)	(1,0)	(1,0)	(1,0)	(1,0)	(1,0)	(1,0)	(1,0)	(1,0)	(1,0)	(1,0)	(1,0)	(1,0)	(1,0)	
L1D 510>	(0,2)	(1,0)	(1,0)	(1,0)	(1,0)	(1,0)	(1,0)	(1,0)	(1,0)	(1,0)	(1,0)	(1,0)	(1,0)	(1,0)	(1,0)	(1,0)	
L1D 511>	(1,0)	(1,0)	(1,0)	(1,0)	(1,0)	(1,0)	(1,0)	(1,0)	(1,0)	(1,0)	(1,0)	(1,0)	(1,0)	(1,0)	(1,0)	(1,0)	

DRAM Statistics
 CHANNEL 0
 RQ ROW_BUFFER_HIT:      42473  ROW_BUFFER_MISS:     220229
 DBUS_CONGESTED:     172805
 WQ ROW_BUFFER_HIT:       8154  ROW_BUFFER_MISS:      44139  FULL:          0

 AVG_CONGESTED_CYCLE: 6

CPU 0 Branch Prediction Accuracy: 95.9299% MPKI: 8.4311 Average ROB Occupancy at Mispredict: 80.5007

Branch types
NOT_BRANCH: 7928275 79.2827%
BRANCH_DIRECT_JUMP: 112439 1.12439%
BRANCH_INDIRECT: 33452 0.33452%
BRANCH_CONDITIONAL: 1331003 13.31%
BRANCH_DIRECT_CALL: 177571 1.77571%
BRANCH_INDIRECT_CALL: 119714 1.19714%
BRANCH_RETURN: 297285 2.97285%
BRANCH_OTHER: 0 0%

