
*** ChampSim Multicore Out-of-Order Simulator ***

Warmup Instructions: 10000000
Simulation Instructions: 10000000
Number of CPUs: 1
LLC sets: 2048
LLC ways: 16
Off-chip DRAM Size: 4096 MB Channels: 1 Width: 64-bit Data Rate: 3200 MT/s

CPU 0 runs ./lpf-traces//657.xz_s-2302B.champsimtrace.xz
CPU 0 Bimodal branch predictor
Heartbeat CPU 0 instructions: 10000003 cycles: 3246277 heartbeat IPC: 3.08045 cumulative IPC: 3.08045 (Simulation time: 0 hr 0 min 33 sec) 

Warmup complete CPU 0 instructions: 10000003 cycles: 3246277 (Simulation time: 0 hr 0 min 33 sec) 

Heartbeat CPU 0 instructions: 20000002 cycles: 15620216 heartbeat IPC: 0.80815 cumulative IPC: 0.80815 (Simulation time: 0 hr 0 min 57 sec) 
Finished CPU 0 instructions: 10000002 cycles: 12373940 cumulative IPC: 0.80815 (Simulation time: 0 hr 0 min 57 sec) 

ChampSim completed all CPUs

Region of Interest Statistics

CPU 0 cumulative IPC: 0.80815 instructions: 10000002 cycles: 12373940
L1D TOTAL     ACCESS:    3178164  HIT:    3046997  MISS:     131167
L1D LOAD      ACCESS:    1620316  HIT:    1561032  MISS:      59284
L1D RFO       ACCESS:     761632  HIT:     752929  MISS:       8703
L1D PREFETCH  ACCESS:     796216  HIT:     733036  MISS:      63180
L1D WRITEBACK ACCESS:          0  HIT:          0  MISS:          0
L1D PREFETCH  REQUESTED:    8089736  ISSUED:    7763884  USEFUL:       6617  USELESS:      56444
L1D AVERAGE MISS LATENCY: 81.7757 cycles
L1I TOTAL     ACCESS:    1613442  HIT:    1613421  MISS:         21
L1I LOAD      ACCESS:    1613442  HIT:    1613421  MISS:         21
L1I RFO       ACCESS:          0  HIT:          0  MISS:          0
L1I PREFETCH  ACCESS:          0  HIT:          0  MISS:          0
L1I WRITEBACK ACCESS:          0  HIT:          0  MISS:          0
L1I PREFETCH  REQUESTED:          0  ISSUED:          0  USEFUL:          0  USELESS:          0
L1I AVERAGE MISS LATENCY: 89.619 cycles
L2C TOTAL     ACCESS:     180280  HIT:     115203  MISS:      65077
L2C LOAD      ACCESS:      59164  HIT:      29151  MISS:      30013
L2C RFO       ACCESS:       8690  HIT:       5706  MISS:       2984
L2C PREFETCH  ACCESS:      63588  HIT:      31596  MISS:      31992
L2C WRITEBACK ACCESS:      48838  HIT:      48750  MISS:         88
L2C PREFETCH  REQUESTED:        358  ISSUED:        355  USEFUL:       2721  USELESS:      28534
L2C AVERAGE MISS LATENCY: 129.405 cycles
LLC TOTAL     ACCESS:      91569  HIT:      57447  MISS:      34122
LLC LOAD      ACCESS:      30010  HIT:      16162  MISS:      13848
LLC RFO       ACCESS:       2984  HIT:       1424  MISS:       1560
LLC PREFETCH  ACCESS:      31995  HIT:      13421  MISS:      18574
LLC WRITEBACK ACCESS:      26580  HIT:      26440  MISS:        140
LLC PREFETCH  REQUESTED:          0  ISSUED:          0  USEFUL:       1816  USELESS:      13090
LLC AVERAGE MISS LATENCY: 185.527 cycles
Major fault: 0 Minor fault: 5125

L1D -512>	(-176,0)	(0,65)	(274,0)	(1,61)	(-12,1)	(-100,0)	(-22,1)	(-375,0)	(-11,0)	(-3,0)	(-79,0)	(330,0)	(78,0)	(91,0)	(-202,0)	(-303,0)	
L1D -511>	(1,2)	(1,0)	(1,0)	(1,0)	(1,0)	(1,0)	(1,0)	(1,0)	(1,0)	(1,0)	(1,0)	(1,0)	(1,0)	(1,0)	(1,0)	(1,0)	
L1D -510>	(383,1)	(1,0)	(1,0)	(1,0)	(1,0)	(1,0)	(1,0)	(1,0)	(1,0)	(1,0)	(1,0)	(1,0)	(1,0)	(1,0)	(1,0)	(1,0)	
L1D -509>	(1,2)	(1,0)	(1,0)	(1,0)	(1,0)	(1,0)	(1,0)	(1,0)	(1,0)	(1,0)	(1,0)	(1,0)	(1,0)	(1,0)	(1,0)	(1,0)	
L1D -508>	(0,1)	(1,0)	(1,0)	(1,0)	(1,0)	(1,0)	(1,0)	(1,0)	(1,0)	(1,0)	(1,0)	(1,0)	(1,0)	(1,0)	(1,0)	(1,0)	
L1D -507>	(0,2)	(434,1)	(65,1)	(1,0)	(1,0)	(1,0)	(1,0)	(1,0)	(1,0)	(1,0)	(1,0)	(1,0)	(1,0)	(1,0)	(1,0)	(1,0)	
L1D -506>	(64,1)	(0,4)	(506,2)	(454,1)	(1,0)	(1,0)	(1,0)	(1,0)	(1,0)	(1,0)	(1,0)	(1,0)	(1,0)	(1,0)	(1,0)	(1,0)	
L1D -505>	(0,1)	(1,0)	(1,0)	(1,0)	(1,0)	(1,0)	(1,0)	(1,0)	(1,0)	(1,0)	(1,0)	(1,0)	(1,0)	(1,0)	(1,0)	(1,0)	
L1D -504>	(211,1)	(1,1)	(0,2)	(1,0)	(1,0)	(1,0)	(1,0)	(1,0)	(1,0)	(1,0)	(1,0)	(1,0)	(1,0)	(1,0)	(1,0)	(1,0)	
L1D -503>	(-3,1)	(503,1)	(1,0)	(1,0)	(1,0)	(1,0)	(1,0)	(1,0)	(1,0)	(1,0)	(1,0)	(1,0)	(1,0)	(1,0)	(1,0)	(1,0)	
L1D -502>	(203,1)	(0,2)	(1,0)	(1,0)	(1,0)	(1,0)	(1,0)	(1,0)	(1,0)	(1,0)	(1,0)	(1,0)	(1,0)	(1,0)	(1,0)	(1,0)	
L1D -501>	(42,1)	(5,1)	(1,2)	(151,1)	(26,1)	(0,1)	(1,0)	(1,0)	(1,0)	(1,0)	(1,0)	(1,0)	(1,0)	(1,0)	(1,0)	(1,0)	
L1D -500>	(1,3)	(457,1)	(1,0)	(1,0)	(1,0)	(1,0)	(1,0)	(1,0)	(1,0)	(1,0)	(1,0)	(1,0)	(1,0)	(1,0)	(1,0)	(1,0)	
L1D -499>	(1,2)	(487,1)	(211,1)	(476,1)	(1,0)	(1,0)	(1,0)	(1,0)	(1,0)	(1,0)	(1,0)	(1,0)	(1,0)	(1,0)	(1,0)	(1,0)	
L1D -498>	(498,6)	(64,1)	(0,4)	(1,2)	(1,0)	(1,0)	(1,0)	(1,0)	(1,0)	(1,0)	(1,0)	(1,0)	(1,0)	(1,0)	(1,0)	(1,0)	
L1D -497>	(497,7)	(291,1)	(-1,1)	(0,3)	(1,0)	(1,0)	(1,0)	(1,0)	(1,0)	(1,0)	(1,0)	(1,0)	(1,0)	(1,0)	(1,0)	(1,0)	
L1D -496>	(502,1)	(159,1)	(1,4)	(0,1)	(174,1)	(390,1)	(501,1)	(121,1)	(1,0)	(1,0)	(1,0)	(1,0)	(1,0)	(1,0)	(1,0)	(1,0)	
L1D -495>	(0,3)	(1,1)	(440,1)	(494,1)	(499,1)	(277,1)	(1,0)	(1,0)	(1,0)	(1,0)	(1,0)	(1,0)	(1,0)	(1,0)	(1,0)	(1,0)	
L1D -494>	(495,1)	(155,1)	(1,1)	(452,1)	(1,0)	(1,0)	(1,0)	(1,0)	(1,0)	(1,0)	(1,0)	(1,0)	(1,0)	(1,0)	(1,0)	(1,0)	
L1D -493>	(64,1)	(485,1)	(166,1)	(1,1)	(499,1)	(1,0)	(1,0)	(1,0)	(1,0)	(1,0)	(1,0)	(1,0)	(1,0)	(1,0)	(1,0)	(1,0)	
L1D -492>	(491,1)	(492,8)	(0,4)	(1,0)	(1,0)	(1,0)	(1,0)	(1,0)	(1,0)	(1,0)	(1,0)	(1,0)	(1,0)	(1,0)	(1,0)	(1,0)	
L1D -491>	(492,2)	(491,5)	(0,5)	(207,1)	(175,1)	(502,1)	(1,0)	(1,0)	(1,0)	(1,0)	(1,0)	(1,0)	(1,0)	(1,0)	(1,0)	(1,0)	
L1D -490>	(395,1)	(0,7)	(5,2)	(153,1)	(1,1)	(489,1)	(1,0)	(1,0)	(1,0)	(1,0)	(1,0)	(1,0)	(1,0)	(1,0)	(1,0)	(1,0)	
L1D -489>	(35,1)	(128,1)	(489,3)	(194,1)	(0,1)	(1,1)	(1,0)	(1,0)	(1,0)	(1,0)	(1,0)	(1,0)	(1,0)	(1,0)	(1,0)	(1,0)	
L1D -488>	(332,1)	(1,1)	(0,2)	(493,1)	(488,1)	(477,1)	(456,1)	(1,0)	(1,0)	(1,0)	(1,0)	(1,0)	(1,0)	(1,0)	(1,0)	(1,0)	
L1D -487>	(487,6)	(1,1)	(0,2)	(493,1)	(484,2)	(1,0)	(1,0)	(1,0)	(1,0)	(1,0)	(1,0)	(1,0)	(1,0)	(1,0)	(1,0)	(1,0)	
L1D -486>	(254,1)	(479,1)	(0,3)	(64,2)	(1,5)	(7,1)	(415,1)	(61,1)	(485,1)	(1,0)	(1,0)	(1,0)	(1,0)	(1,0)	(1,0)	(1,0)	
L1D -485>	(1,3)	(0,6)	(193,1)	(212,1)	(454,1)	(1,0)	(1,0)	(1,0)	(1,0)	(1,0)	(1,0)	(1,0)	(1,0)	(1,0)	(1,0)	(1,0)	
L1D -484>	(0,4)	(439,1)	(277,1)	(365,1)	(215,1)	(401,1)	(1,1)	(485,1)	(488,1)	(1,0)	(1,0)	(1,0)	(1,0)	(1,0)	(1,0)	(1,0)	
L1D -483>	(114,1)	(313,1)	(0,3)	(182,1)	(475,1)	(476,1)	(64,1)	(1,0)	(1,0)	(1,0)	(1,0)	(1,0)	(1,0)	(1,0)	(1,0)	(1,0)	
L1D -482>	(1,2)	(64,3)	(0,1)	(356,1)	(320,1)	(1,0)	(1,0)	(1,0)	(1,0)	(1,0)	(1,0)	(1,0)	(1,0)	(1,0)	(1,0)	(1,0)	
L1D -481>	(473,1)	(-18,1)	(349,1)	(1,1)	(0,2)	(1,0)	(1,0)	(1,0)	(1,0)	(1,0)	(1,0)	(1,0)	(1,0)	(1,0)	(1,0)	(1,0)	
L1D -480>	(0,9)	(1,3)	(199,1)	(1,0)	(1,0)	(1,0)	(1,0)	(1,0)	(1,0)	(1,0)	(1,0)	(1,0)	(1,0)	(1,0)	(1,0)	(1,0)	
L1D -479>	(0,6)	(256,1)	(1,2)	(347,1)	(64,1)	(403,1)	(1,0)	(1,0)	(1,0)	(1,0)	(1,0)	(1,0)	(1,0)	(1,0)	(1,0)	(1,0)	
L1D -478>	(479,4)	(0,1)	(1,5)	(64,1)	(242,1)	(1,0)	(1,0)	(1,0)	(1,0)	(1,0)	(1,0)	(1,0)	(1,0)	(1,0)	(1,0)	(1,0)	
L1D -477>	(0,6)	(64,1)	(249,1)	(1,1)	(1,0)	(1,0)	(1,0)	(1,0)	(1,0)	(1,0)	(1,0)	(1,0)	(1,0)	(1,0)	(1,0)	(1,0)	
L1D -476>	(0,7)	(353,1)	(316,1)	(46,1)	(1,4)	(200,1)	(468,1)	(1,0)	(1,0)	(1,0)	(1,0)	(1,0)	(1,0)	(1,0)	(1,0)	(1,0)	
L1D -475>	(475,10)	(476,8)	(1,6)	(0,4)	(328,1)	(21,1)	(366,1)	(64,1)	(464,1)	(337,1)	(474,3)	(1,0)	(1,0)	(1,0)	(1,0)	(1,0)	
L1D -474>	(379,1)	(0,15)	(475,2)	(480,2)	(474,23)	(473,2)	(1,1)	(64,1)	(119,2)	(1,0)	(1,0)	(1,0)	(1,0)	(1,0)	(1,0)	(1,0)	
L1D -473>	(493,1)	(0,9)	(473,28)	(1,2)	(36,1)	(379,1)	(64,1)	(400,1)	(474,8)	(461,3)	(315,1)	(1,0)	(1,0)	(1,0)	(1,0)	(1,0)	
L1D -472>	(472,13)	(1,6)	(0,4)	(7,1)	(471,2)	(1,0)	(1,0)	(1,0)	(1,0)	(1,0)	(1,0)	(1,0)	(1,0)	(1,0)	(1,0)	(1,0)	
L1D -471>	(-1,1)	(471,12)	(0,8)	(200,1)	(189,1)	(110,1)	(472,8)	(1,1)	(-4,1)	(1,0)	(1,0)	(1,0)	(1,0)	(1,0)	(1,0)	(1,0)	
L1D -470>	(470,19)	(469,3)	(360,1)	(0,3)	(33,1)	(1,3)	(-20,1)	(-4,1)	(1,0)	(1,0)	(1,0)	(1,0)	(1,0)	(1,0)	(1,0)	(1,0)	
L1D -469>	(0,4)	(470,4)	(1,2)	(-25,1)	(169,1)	(64,2)	(457,1)	(469,7)	(370,1)	(-7,1)	(474,1)	(228,1)	(394,1)	(120,1)	(1,0)	(1,0)	
L1D -468>	(0,9)	(1,2)	(-24,1)	(332,1)	(455,1)	(384,1)	(460,1)	(456,1)	(1,0)	(1,0)	(1,0)	(1,0)	(1,0)	(1,0)	(1,0)	(1,0)	
L1D -467>	(470,1)	(20,1)	(0,11)	(342,1)	(18,1)	(1,2)	(338,1)	(467,5)	(254,1)	(1,0)	(1,0)	(1,0)	(1,0)	(1,0)	(1,0)	(1,0)	
L1D -466>	(461,1)	(0,5)	(125,1)	(149,1)	(156,1)	(1,1)	(100,1)	(64,4)	(140,1)	(36,1)	(466,1)	(-28,1)	(467,1)	(1,0)	(1,0)	(1,0)	
L1D -465>	(0,9)	(471,1)	(1,6)	(469,2)	(464,1)	(72,1)	(420,1)	(1,0)	(1,0)	(1,0)	(1,0)	(1,0)	(1,0)	(1,0)	(1,0)	(1,0)	
L1D -464>	(1,6)	(0,6)	(90,1)	(421,1)	(93,1)	(176,1)	(469,1)	(64,2)	(387,1)	(464,3)	(465,1)	(482,1)	(462,1)	(1,0)	(1,0)	(1,0)	
L1D -463>	(64,1)	(51,1)	(1,1)	(463,1)	(464,1)	(101,1)	(451,1)	(-34,1)	(156,2)	(0,1)	(226,1)	(1,0)	(1,0)	(1,0)	(1,0)	(1,0)	
L1D -462>	(0,10)	(434,1)	(1,8)	(468,1)	(278,1)	(462,3)	(247,1)	(1,0)	(1,0)	(1,0)	(1,0)	(1,0)	(1,0)	(1,0)	(1,0)	(1,0)	
L1D -461>	(94,1)	(0,9)	(449,1)	(64,2)	(466,2)	(112,1)	(231,1)	(59,1)	(408,1)	(19,1)	(461,2)	(365,1)	(450,1)	(453,1)	(1,0)	(1,0)	
L1D -460>	(254,1)	(459,1)	(475,1)	(0,6)	(-1,1)	(1,2)	(380,1)	(404,3)	(213,1)	(443,1)	(1,0)	(1,0)	(1,0)	(1,0)	(1,0)	(1,0)	
L1D -459>	(457,1)	(1,4)	(459,13)	(460,3)	(458,1)	(0,10)	(64,1)	(464,1)	(404,1)	(403,2)	(1,0)	(1,0)	(1,0)	(1,0)	(1,0)	(1,0)	
L1D -458>	(464,1)	(458,1)	(0,8)	(208,1)	(64,1)	(409,1)	(459,4)	(91,1)	(225,2)	(1,2)	(478,1)	(448,1)	(404,2)	(235,1)	(1,0)	(1,0)	
L1D -457>	(457,16)	(223,1)	(406,2)	(458,1)	(116,1)	(0,7)	(1,3)	(5,1)	(35,1)	(460,1)	(133,1)	(462,2)	(64,1)	(-4,1)	(456,1)	(235,1)	
L1D -456>	(330,1)	(0,14)	(456,5)	(457,6)	(20,1)	(1,3)	(11,1)	(190,1)	(137,1)	(88,1)	(235,1)	(211,1)	(-20,1)	(453,1)	(455,1)	(183,1)	
L1D -455>	(461,2)	(0,6)	(64,1)	(122,1)	(452,1)	(456,5)	(162,1)	(291,1)	(1,1)	(1,0)	(1,0)	(1,0)	(1,0)	(1,0)	(1,0)	(1,0)	
L1D -454>	(383,1)	(377,1)	(453,3)	(155,1)	(0,12)	(125,1)	(392,1)	(-3,1)	(209,1)	(251,1)	(1,2)	(332,1)	(454,1)	(14,1)	(1,0)	(1,0)	
L1D -453>	(453,18)	(1,3)	(0,10)	(465,1)	(452,1)	(181,1)	(459,1)	(298,1)	(449,1)	(108,1)	(-1,1)	(338,1)	(51,1)	(285,1)	(1,0)	(1,0)	
L1D -452>	(84,1)	(-5,1)	(344,2)	(453,6)	(1,3)	(0,8)	(33,1)	(23,1)	(452,7)	(212,1)	(-52,1)	(1,0)	(1,0)	(1,0)	(1,0)	(1,0)	
L1D -451>	(0,7)	(208,1)	(1,6)	(301,1)	(452,2)	(342,1)	(439,1)	(1,0)	(1,0)	(1,0)	(1,0)	(1,0)	(1,0)	(1,0)	(1,0)	(1,0)	
L1D -450>	(1,11)	(121,1)	(455,3)	(96,1)	(0,10)	(31,1)	(451,2)	(80,1)	(439,1)	(1,0)	(1,0)	(1,0)	(1,0)	(1,0)	(1,0)	(1,0)	
L1D -449>	(21,1)	(0,7)	(328,1)	(161,1)	(1,1)	(412,1)	(449,1)	(450,1)	(18,1)	(1,0)	(1,0)	(1,0)	(1,0)	(1,0)	(1,0)	(1,0)	
L1D -448>	(0,3)	(1,4)	(454,1)	(427,1)	(217,1)	(-37,1)	(449,1)	(279,1)	(219,1)	(1,0)	(1,0)	(1,0)	(1,0)	(1,0)	(1,0)	(1,0)	
L1D -447>	(477,1)	(64,1)	(-14,1)	(1,4)	(340,1)	(447,2)	(0,4)	(451,1)	(467,1)	(316,1)	(425,1)	(1,0)	(1,0)	(1,0)	(1,0)	(1,0)	
L1D -446>	(1,3)	(202,1)	(0,6)	(155,1)	(445,2)	(446,15)	(447,2)	(76,1)	(238,1)	(114,1)	(1,0)	(1,0)	(1,0)	(1,0)	(1,0)	(1,0)	
L1D -445>	(0,7)	(1,2)	(451,1)	(459,1)	(450,1)	(372,1)	(418,1)	(166,1)	(445,9)	(446,7)	(270,1)	(425,1)	(1,0)	(1,0)	(1,0)	(1,0)	
L1D -444>	(1,4)	(416,1)	(0,8)	(252,1)	(-9,1)	(444,4)	(475,1)	(419,1)	(445,2)	(1,0)	(1,0)	(1,0)	(1,0)	(1,0)	(1,0)	(1,0)	
L1D -443>	(447,1)	(178,1)	(-14,1)	(1,6)	(443,9)	(444,1)	(64,1)	(-18,1)	(311,2)	(346,1)	(0,4)	(239,1)	(448,1)	(54,1)	(364,1)	(1,0)	
L1D -442>	(64,1)	(392,1)	(394,1)	(442,5)	(0,3)	(429,1)	(1,1)	(417,1)	(197,1)	(203,1)	(204,1)	(343,1)	(55,1)	(441,1)	(82,1)	(1,0)	
L1D -441>	(442,1)	(471,1)	(441,13)	(0,9)	(316,6)	(430,1)	(206,1)	(1,3)	(454,1)	(107,1)	(291,1)	(336,1)	(255,1)	(187,1)	(2,1)	(440,3)	
L1D -440>	(0,10)	(1,6)	(441,5)	(440,5)	(315,2)	(405,1)	(408,1)	(129,1)	(1,0)	(1,0)	(1,0)	(1,0)	(1,0)	(1,0)	(1,0)	(1,0)	
L1D -439>	(0,3)	(-6,1)	(436,1)	(212,1)	(246,1)	(440,1)	(1,5)	(-50,1)	(-58,1)	(438,1)	(439,5)	(82,1)	(442,1)	(409,1)	(383,1)	(-21,1)	
L1D -438>	(0,14)	(1,8)	(443,1)	(456,1)	(433,1)	(438,28)	(439,1)	(58,1)	(49,1)	(179,1)	(442,1)	(332,1)	(1,0)	(1,0)	(1,0)	(1,0)	
L1D -437>	(0,9)	(437,13)	(436,4)	(1,4)	(137,1)	(30,1)	(146,1)	(16,1)	(64,2)	(128,1)	(442,1)	(382,1)	(435,2)	(159,1)	(384,1)	(421,1)	
L1D -436>	(1,10)	(430,2)	(436,6)	(437,3)	(366,1)	(0,5)	(-15,1)	(16,1)	(38,1)	(445,1)	(356,1)	(434,2)	(64,1)	(101,1)	(423,1)	(428,1)	
L1D -435>	(1,7)	(0,5)	(436,2)	(128,1)	(423,1)	(159,1)	(114,1)	(-30,1)	(64,1)	(435,8)	(137,1)	(87,1)	(434,1)	(371,1)	(147,1)	(98,1)	
L1D -434>	(1,7)	(434,9)	(0,9)	(142,1)	(435,8)	(432,1)	(199,1)	(439,2)	(463,1)	(382,1)	(421,1)	(1,0)	(1,0)	(1,0)	(1,0)	(1,0)	
L1D -433>	(0,9)	(1,4)	(200,1)	(233,1)	(353,1)	(189,1)	(15,1)	(433,2)	(130,1)	(-60,1)	(1,0)	(1,0)	(1,0)	(1,0)	(1,0)	(1,0)	
L1D -432>	(0,11)	(1,11)	(2,1)	(418,1)	(432,3)	(-29,1)	(1,0)	(1,0)	(1,0)	(1,0)	(1,0)	(1,0)	(1,0)	(1,0)	(1,0)	(1,0)	
L1D -431>	(0,7)	(424,1)	(1,5)	(431,6)	(430,1)	(426,1)	(370,1)	(202,1)	(331,1)	(436,1)	(-1,1)	(432,5)	(445,1)	(-39,1)	(413,1)	(163,1)	
L1D -430>	(0,6)	(-14,1)	(254,1)	(448,2)	(260,1)	(280,1)	(430,3)	(429,1)	(397,1)	(32,1)	(1,4)	(265,1)	(1,0)	(1,0)	(1,0)	(1,0)	
L1D -429>	(0,9)	(136,1)	(429,5)	(425,1)	(430,13)	(82,1)	(318,1)	(1,3)	(435,2)	(434,1)	(293,1)	(421,1)	(141,1)	(110,1)	(428,3)	(1,0)	
L1D -428>	(295,1)	(0,2)	(1,5)	(428,21)	(424,1)	(64,3)	(70,1)	(377,1)	(18,1)	(307,1)	(234,1)	(387,1)	(434,1)	(235,1)	(-36,1)	(372,1)	
L1D -427>	(0,15)	(64,2)	(1,6)	(378,1)	(243,1)	(225,1)	(432,1)	(375,2)	(427,3)	(139,1)	(158,1)	(-10,1)	(433,2)	(428,5)	(1,0)	(1,0)	
L1D -426>	(418,1)	(419,1)	(426,9)	(1,7)	(0,18)	(134,1)	(430,1)	(465,1)	(-52,1)	(1,0)	(1,0)	(1,0)	(1,0)	(1,0)	(1,0)	(1,0)	
L1D -425>	(425,34)	(426,4)	(-21,1)	(0,13)	(55,1)	(429,2)	(1,10)	(11,1)	(-11,1)	(-33,1)	(132,1)	(392,1)	(137,1)	(118,1)	(368,1)	(20,1)	
L1D -424>	(0,10)	(1,8)	(416,1)	(288,1)	(-32,2)	(133,1)	(-15,1)	(363,1)	(251,1)	(425,5)	(282,1)	(424,1)	(310,1)	(1,0)	(1,0)	(1,0)	
L1D -423>	(318,1)	(423,20)	(421,1)	(9,1)	(-44,1)	(27,1)	(1,5)	(0,3)	(335,1)	(246,1)	(-24,1)	(429,1)	(433,1)	(69,1)	(424,1)	(-32,2)	
L1D -422>	(1,5)	(50,1)	(55,1)	(0,12)	(422,9)	(423,2)	(430,1)	(315,1)	(-32,1)	(12,1)	(374,1)	(384,1)	(208,1)	(73,1)	(421,1)	(383,1)	
L1D -421>	(-10,1)	(421,15)	(0,17)	(422,1)	(1,4)	(344,2)	(420,1)	(340,1)	(413,1)	(419,1)	(307,1)	(358,1)	(427,2)	(-1,1)	(17,1)	(63,1)	
L1D -420>	(71,1)	(421,4)	(420,19)	(1,4)	(301,1)	(0,7)	(410,1)	(422,1)	(-42,1)	(292,1)	(39,1)	(64,1)	(401,1)	(129,1)	(175,1)	(36,1)	
L1D -419>	(303,1)	(1,7)	(377,1)	(140,1)	(347,1)	(0,16)	(449,1)	(342,1)	(419,5)	(-19,1)	(129,1)	(181,1)	(420,3)	(152,1)	(408,1)	(433,1)	
L1D -418>	(0,9)	(175,1)	(321,1)	(1,4)	(415,1)	(64,1)	(-19,3)	(76,1)	(7,1)	(165,1)	(419,6)	(424,1)	(-13,1)	(-7,1)	(-10,1)	(128,1)	
L1D -417>	(220,4)	(418,4)	(351,1)	(0,11)	(417,9)	(343,1)	(422,1)	(1,9)	(126,1)	(410,1)	(269,1)	(-42,1)	(438,1)	(381,1)	(-37,1)	(286,1)	
L1D -416>	(416,16)	(415,4)	(0,17)	(1,9)	(421,5)	(410,1)	(196,1)	(55,1)	(94,1)	(35,1)	(162,1)	(311,1)	(409,1)	(466,1)	(106,1)	(448,1)	
L1D -415>	(0,20)	(415,51)	(418,1)	(-77,1)	(64,1)	(89,1)	(1,6)	(420,1)	(421,1)	(-76,1)	(-51,1)	(354,1)	(345,1)	(7,1)	(52,1)	(414,6)	
L1D -414>	(1,16)	(81,2)	(0,25)	(413,11)	(414,25)	(229,1)	(-73,1)	(-1,1)	(420,1)	(7,1)	(-61,1)	(415,5)	(478,1)	(172,1)	(88,1)	(316,1)	
L1D -413>	(413,73)	(412,1)	(411,0)	(239,0)	(1,5)	(390,0)	(0,4)	(414,7)	(429,0)	(292,0)	(185,0)	(190,0)	(32,0)	(64,0)	(-15,0)	(418,0)	
L1D -412>	(393,1)	(0,17)	(411,5)	(412,44)	(413,9)	(1,7)	(70,1)	(376,1)	(165,1)	(-8,1)	(237,1)	(297,1)	(401,1)	(144,1)	(124,1)	(395,1)	
L1D -411>	(1,4)	(0,15)	(411,12)	(464,1)	(412,6)	(397,1)	(4,1)	(97,1)	(442,1)	(452,1)	(295,1)	(414,1)	(263,1)	(425,1)	(-74,1)	(309,1)	
L1D -410>	(152,1)	(0,12)	(1,10)	(405,2)	(413,1)	(411,9)	(94,1)	(59,1)	(402,2)	(62,1)	(283,1)	(64,1)	(410,1)	(398,1)	(408,1)	(-1,1)	
L1D -409>	(239,1)	(1,5)	(0,15)	(279,1)	(415,1)	(408,1)	(409,2)	(130,1)	(405,1)	(369,1)	(291,1)	(296,1)	(106,1)	(413,1)	(410,1)	(414,1)	
L1D -408>	(0,36)	(1,24)	(408,7)	(138,1)	(214,1)	(153,1)	(8,3)	(409,1)	(407,1)	(159,1)	(288,1)	(137,2)	(-1,4)	(64,1)	(167,1)	(398,1)	
L1D -407>	(407,9)	(408,14)	(412,1)	(-1,23)	(0,29)	(-35,1)	(1,6)	(394,1)	(289,1)	(344,1)	(390,1)	(7,2)	(5,1)	(361,1)	(406,1)	(143,1)	
L1D -406>	(0,13)	(1,10)	(406,2)	(463,2)	(208,1)	(392,1)	(395,1)	(405,1)	(305,1)	(22,1)	(402,1)	(293,1)	(-36,1)	(302,1)	(314,1)	(153,1)	
L1D -405>	(430,2)	(0,12)	(405,10)	(1,7)	(481,1)	(415,1)	(-3,1)	(-41,1)	(-30,1)	(249,1)	(255,1)	(355,1)	(-74,1)	(64,1)	(410,1)	(-36,1)	
L1D -404>	(404,13)	(405,7)	(0,12)	(-24,2)	(1,6)	(64,2)	(312,1)	(409,1)	(358,1)	(227,1)	(-36,1)	(489,1)	(479,1)	(138,1)	(9,1)	(301,1)	
L1D -403>	(424,1)	(237,1)	(1,11)	(0,11)	(408,1)	(396,2)	(-15,1)	(403,1)	(292,1)	(355,1)	(302,1)	(67,1)	(-63,1)	(1,0)	(1,0)	(1,0)	
L1D -402>	(403,2)	(416,1)	(0,16)	(1,4)	(402,11)	(344,1)	(315,1)	(482,1)	(407,1)	(64,2)	(121,1)	(365,1)	(187,1)	(401,1)	(3,1)	(110,1)	
L1D -401>	(-52,2)	(335,1)	(400,2)	(0,20)	(388,1)	(406,2)	(401,37)	(402,6)	(1,8)	(-45,1)	(339,1)	(76,1)	(166,1)	(407,3)	(307,1)	(154,1)	
L1D -400>	(0,19)	(401,2)	(399,3)	(2,1)	(397,1)	(5,1)	(366,1)	(1,8)	(140,1)	(419,1)	(31,1)	(406,1)	(400,3)	(64,1)	(-5,1)	(344,1)	
L1D -399>	(39,1)	(90,1)	(255,1)	(399,40)	(400,12)	(0,13)	(1,11)	(301,1)	(398,2)	(-57,1)	(62,1)	(405,1)	(154,1)	(-1,1)	(-20,3)	(456,3)	
L1D -398>	(0,10)	(399,8)	(1,7)	(-95,1)	(398,4)	(234,1)	(195,1)	(64,1)	(187,1)	(403,2)	(181,1)	(351,1)	(366,1)	(404,1)	(36,1)	(413,1)	
L1D -397>	(397,8)	(402,2)	(389,1)	(0,14)	(401,2)	(1,21)	(276,1)	(48,1)	(214,1)	(2,2)	(377,1)	(306,1)	(89,1)	(114,1)	(263,1)	(375,1)	
L1D -396>	(0,12)	(1,33)	(401,3)	(257,2)	(396,2)	(395,7)	(-14,1)	(191,1)	(322,1)	(31,1)	(353,1)	(293,1)	(-52,1)	(-82,1)	(-62,1)	(402,3)	
L1D -395>	(395,74)	(1,23)	(0,27)	(394,2)	(385,1)	(384,1)	(64,4)	(396,12)	(142,1)	(401,1)	(392,1)	(194,1)	(252,1)	(-1,1)	(98,1)	(144,1)	
L1D -394>	(1,20)	(0,13)	(394,36)	(395,13)	(446,1)	(365,1)	(157,1)	(380,1)	(388,1)	(245,3)	(386,1)	(375,1)	(48,1)	(90,1)	(7,1)	(-32,1)	
L1D -393>	(405,2)	(1,15)	(0,19)	(5,1)	(17,1)	(295,1)	(64,1)	(-25,1)	(-32,1)	(128,1)	(296,1)	(-5,1)	(392,2)	(391,1)	(2,1)	(414,1)	
L1D -392>	(391,10)	(1,9)	(390,2)	(392,109)	(0,35)	(-21,9)	(404,5)	(387,1)	(118,1)	(428,1)	(370,1)	(396,1)	(418,1)	(398,1)	(374,1)	(64,2)	
L1D -391>	(1,8)	(385,1)	(0,10)	(392,8)	(390,3)	(117,1)	(397,1)	(64,1)	(372,2)	(-1,1)	(391,67)	(263,1)	(63,1)	(450,1)	(107,1)	(270,0)	
L1D -390>	(0,10)	(1,5)	(390,115)	(391,57)	(389,1)	(116,3)	(384,1)	(206,1)	(289,1)	(371,6)	(266,1)	(133,1)	(369,1)	(56,0)	(396,0)	(85,0)	
L1D -389>	(0,15)	(389,11)	(390,3)	(207,1)	(424,2)	(388,1)	(1,6)	(48,1)	(-79,1)	(170,1)	(310,1)	(277,1)	(-86,1)	(102,1)	(254,1)	(376,1)	
L1D -388>	(389,6)	(0,6)	(388,9)	(1,10)	(373,1)	(2,1)	(426,1)	(31,1)	(394,2)	(393,2)	(399,1)	(236,1)	(-12,1)	(354,1)	(-42,1)	(170,1)	
L1D -387>	(387,14)	(385,3)	(2,11)	(386,3)	(0,19)	(1,12)	(374,2)	(392,1)	(380,1)	(255,1)	(153,1)	(408,1)	(221,1)	(55,1)	(411,1)	(-89,1)	
L1D -386>	(386,119)	(0,40)	(385,12)	(387,6)	(363,5)	(420,3)	(378,2)	(109,1)	(-32,1)	(390,1)	(8,1)	(411,1)	(484,1)	(451,1)	(388,1)	(1,8)	
L1D -385>	(-1,3)	(1,113)	(385,53)	(386,38)	(0,27)	(391,1)	(390,1)	(252,1)	(64,1)	(-4,1)	(310,1)	(309,1)	(8,1)	(366,1)	(326,1)	(39,1)	
L1D -384>	(384,8)	(0,23)	(383,12)	(419,1)	(391,1)	(-13,1)	(220,1)	(1,4)	(266,1)	(385,2)	(3,1)	(442,1)	(145,1)	(292,1)	(290,1)	(390,2)	
L1D -383>	(384,1)	(0,8)	(395,0)	(383,67)	(406,0)	(349,1)	(391,1)	(59,0)	(394,0)	(1,6)	(398,0)	(300,0)	(249,0)	(91,0)	(340,0)	(285,0)	
L1D -382>	(0,19)	(383,26)	(382,8)	(1,8)	(381,3)	(-55,1)	(371,1)	(-74,1)	(85,1)	(-21,1)	(396,1)	(375,1)	(-46,1)	(314,1)	(273,1)	(379,1)	
L1D -381>	(395,2)	(1,12)	(381,33)	(20,1)	(0,23)	(359,1)	(385,1)	(260,1)	(222,2)	(382,7)	(-41,1)	(-77,1)	(-89,1)	(300,1)	(386,2)	(228,1)	
L1D -380>	(0,30)	(267,2)	(241,1)	(380,25)	(368,1)	(338,1)	(248,1)	(381,9)	(1,9)	(374,1)	(199,1)	(405,1)	(263,1)	(355,1)	(64,1)	(387,1)	
L1D -379>	(0,23)	(-1,2)	(379,20)	(1,10)	(367,1)	(378,2)	(384,2)	(499,1)	(377,1)	(154,1)	(292,3)	(236,1)	(209,1)	(83,1)	(317,1)	(-21,1)	
L1D -378>	(379,5)	(1,21)	(384,1)	(0,34)	(366,1)	(378,7)	(430,1)	(-21,1)	(350,1)	(81,1)	(-37,1)	(-41,1)	(248,1)	(64,1)	(377,2)	(410,1)	
L1D -377>	(0,28)	(382,2)	(-27,1)	(377,119)	(1,7)	(378,6)	(291,1)	(-1,2)	(376,6)	(351,1)	(355,2)	(354,1)	(344,3)	(327,1)	(365,3)	(214,1)	
L1D -376>	(0,15)	(375,7)	(291,1)	(1,10)	(22,1)	(363,2)	(69,1)	(377,30)	(344,1)	(376,16)	(-1,1)	(354,1)	(343,2)	(-60,1)	(370,1)	(295,1)	
L1D -375>	(91,1)	(375,49)	(0,23)	(386,1)	(187,1)	(-1,2)	(374,3)	(322,1)	(1,15)	(376,13)	(321,1)	(110,2)	(46,1)	(-108,1)	(339,1)	(260,1)	
L1D -374>	(373,3)	(380,1)	(374,10)	(375,21)	(0,18)	(168,3)	(1,6)	(385,1)	(64,1)	(-31,1)	(-16,1)	(245,1)	(-82,1)	(227,1)	(59,1)	(93,1)	
L1D -373>	(1,11)	(450,2)	(373,13)	(0,15)	(374,2)	(-55,1)	(35,1)	(64,2)	(335,2)	(250,1)	(295,1)	(205,1)	(252,1)	(268,1)	(379,2)	(-6,1)	
L1D -372>	(365,1)	(0,13)	(86,1)	(43,1)	(372,33)	(373,9)	(123,1)	(1,11)	(271,1)	(304,1)	(290,1)	(19,1)	(-84,1)	(378,1)	(1,0)	(1,0)	
L1D -371>	(0,17)	(1,7)	(372,3)	(371,19)	(93,1)	(377,2)	(-6,1)	(213,1)	(314,1)	(-87,1)	(236,1)	(56,1)	(376,2)	(196,1)	(138,1)	(332,1)	
L1D -370>	(0,28)	(371,47)	(370,6)	(243,1)	(230,1)	(11,3)	(1,11)	(352,1)	(381,3)	(42,1)	(-1,1)	(144,2)	(368,4)	(148,1)	(314,1)	(405,1)	
L1D -369>	(283,1)	(0,17)	(369,69)	(1,12)	(329,1)	(388,1)	(64,2)	(498,1)	(449,1)	(-11,1)	(370,7)	(277,1)	(311,1)	(63,1)	(257,1)	(-32,1)	
L1D -368>	(0,18)	(368,21)	(369,6)	(2,4)	(1,17)	(434,2)	(412,1)	(-118,1)	(164,1)	(25,1)	(367,5)	(321,1)	(93,1)	(290,1)	(-59,1)	(373,2)	
L1D -367>	(-68,1)	(0,28)	(1,25)	(363,1)	(367,15)	(284,1)	(-31,1)	(325,1)	(-62,1)	(-40,1)	(-89,1)	(368,6)	(-122,1)	(314,1)	(-3,1)	(-1,1)	
L1D -366>	(1,50)	(366,16)	(0,38)	(154,1)	(70,1)	(2,1)	(398,2)	(402,1)	(393,1)	(363,1)	(-32,1)	(379,1)	(153,1)	(-2,5)	(87,1)	(365,1)	
L1D -365>	(1,36)	(0,31)	(365,10)	(-2,4)	(-8,1)	(379,1)	(22,1)	(288,1)	(356,1)	(64,1)	(422,1)	(364,1)	(245,1)	(370,2)	(295,1)	(68,1)	
L1D -364>	(0,19)	(194,2)	(369,2)	(364,8)	(251,1)	(300,1)	(-82,1)	(179,1)	(64,1)	(1,8)	(365,7)	(229,1)	(230,1)	(249,1)	(355,1)	(370,2)	
L1D -363>	(386,2)	(61,1)	(382,1)	(0,26)	(375,1)	(363,9)	(1,11)	(364,1)	(366,1)	(64,3)	(369,2)	(150,1)	(374,1)	(357,1)	(-47,1)	(27,1)	
L1D -362>	(0,31)	(386,4)	(387,3)	(75,1)	(362,53)	(1,13)	(343,1)	(64,2)	(361,17)	(377,1)	(463,1)	(271,1)	(243,1)	(424,1)	(250,1)	(307,1)	
L1D -361>	(322,1)	(362,18)	(0,37)	(363,1)	(359,7)	(361,103)	(360,19)	(1,8)	(338,1)	(58,1)	(444,1)	(199,1)	(-1,1)	(349,1)	(328,1)	(344,1)	
L1D -360>	(365,1)	(0,11)	(360,70)	(361,15)	(1,5)	(88,1)	(357,2)	(358,2)	(-12,8)	(-125,1)	(-77,1)	(7,1)	(188,1)	(331,1)	(-40,1)	(283,1)	
L1D -359>	(1,52)	(257,26)	(361,5)	(359,70)	(358,11)	(360,26)	(357,4)	(-84,3)	(236,1)	(378,1)	(-37,1)	(-1,5)	(0,27)	(314,1)	(12,1)	(334,1)	
L1D -358>	(361,3)	(0,26)	(358,120)	(202,1)	(359,22)	(1,7)	(364,1)	(91,1)	(339,1)	(-42,1)	(-16,4)	(-11,1)	(398,1)	(213,1)	(299,2)	(-2,1)	
L1D -357>	(0,20)	(90,2)	(1,8)	(358,15)	(357,10)	(340,2)	(374,2)	(19,1)	(299,1)	(359,1)	(362,3)	(351,1)	(-8,1)	(363,2)	(108,1)	(219,1)	
L1D -356>	(260,1)	(356,11)	(0,30)	(347,1)	(1,10)	(355,1)	(380,1)	(-32,1)	(7,1)	(362,2)	(-11,1)	(178,1)	(133,1)	(288,1)	(323,1)	(329,1)	
L1D -355>	(141,1)	(356,3)	(355,22)	(0,23)	(354,4)	(1,9)	(201,1)	(64,2)	(173,1)	(164,1)	(-49,1)	(-54,1)	(270,1)	(224,1)	(-57,1)	(347,1)	
L1D -354>	(353,5)	(1,16)	(354,63)	(355,8)	(97,1)	(0,26)	(363,1)	(342,1)	(64,1)	(-31,1)	(267,1)	(328,1)	(2,1)	(193,1)	(-74,1)	(318,1)	
L1D -353>	(358,6)	(0,35)	(1,12)	(353,46)	(18,3)	(-11,1)	(278,1)	(-107,1)	(-79,1)	(238,1)	(64,1)	(354,8)	(-44,1)	(215,2)	(-15,1)	(247,1)	
L1D -352>	(0,19)	(353,6)	(-1,2)	(357,3)	(352,9)	(126,1)	(340,1)	(384,1)	(444,1)	(1,10)	(114,1)	(69,1)	(306,1)	(333,1)	(380,1)	(415,1)	
L1D -351>	(0,31)	(1,16)	(309,1)	(-19,1)	(64,1)	(400,1)	(197,1)	(27,1)	(12,1)	(352,9)	(-44,1)	(-16,2)	(351,14)	(349,1)	(53,2)	(298,1)	
L1D -350>	(1,13)	(350,28)	(349,4)	(0,34)	(-95,1)	(367,1)	(-68,1)	(406,1)	(355,1)	(312,1)	(393,1)	(64,1)	(257,1)	(319,1)	(335,1)	(351,4)	
L1D -349>	(349,46)	(350,5)	(0,32)	(348,3)	(1,15)	(130,1)	(357,1)	(221,1)	(233,1)	(235,1)	(244,1)	(252,1)	(-149,1)	(257,1)	(-58,1)	(100,1)	
L1D -348>	(344,1)	(348,22)	(1,13)	(9,1)	(319,1)	(0,23)	(349,8)	(353,2)	(-80,1)	(296,1)	(2,1)	(285,1)	(64,1)	(-113,1)	(196,1)	(156,1)	
L1D -347>	(348,9)	(1,12)	(347,9)	(353,4)	(0,24)	(266,2)	(365,1)	(-30,1)	(64,2)	(330,1)	(332,1)	(198,1)	(-54,1)	(183,1)	(265,1)	(359,1)	
L1D -346>	(352,3)	(1,12)	(347,3)	(-20,1)	(346,23)	(345,3)	(0,18)	(180,1)	(387,1)	(-8,1)	(323,1)	(-111,1)	(-122,1)	(264,1)	(324,1)	(420,1)	
L1D -345>	(1,15)	(346,14)	(348,1)	(250,1)	(0,19)	(25,2)	(351,1)	(345,20)	(341,1)	(234,1)	(-91,1)	(-27,1)	(356,2)	(-4,1)	(-1,1)	(-57,1)	
L1D -344>	(0,29)	(343,4)	(344,10)	(331,2)	(350,3)	(1,14)	(21,2)	(349,3)	(47,1)	(-21,1)	(222,1)	(144,1)	(-16,1)	(64,1)	(345,3)	(352,1)	
L1D -343>	(343,22)	(-40,3)	(344,4)	(1,21)	(23,2)	(0,18)	(64,4)	(-1,2)	(190,1)	(277,1)	(34,1)	(-74,1)	(233,1)	(388,1)	(-101,1)	(321,1)	
L1D -342>	(0,58)	(1,13)	(342,48)	(341,14)	(347,5)	(-34,1)	(411,1)	(357,1)	(203,1)	(104,1)	(340,2)	(-5,1)	(397,1)	(398,1)	(3,1)	(6,1)	
L1D -341>	(1,14)	(341,127)	(342,39)	(333,4)	(340,9)	(339,2)	(0,42)	(83,1)	(60,1)	(64,2)	(362,1)	(327,1)	(403,2)	(140,1)	(72,1)	(315,1)	
L1D -340>	(-67,2)	(340,14)	(341,5)	(0,14)	(339,2)	(-69,1)	(-1,2)	(-28,1)	(1,12)	(64,1)	(348,1)	(141,1)	(-26,1)	(225,1)	(49,2)	(345,2)	
L1D -339>	(0,23)	(344,2)	(339,72)	(-42,2)	(337,3)	(338,11)	(1,14)	(371,2)	(73,1)	(325,2)	(-17,1)	(-89,1)	(4,1)	(350,1)	(176,1)	(112,1)	
L1D -338>	(337,5)	(0,36)	(420,2)	(338,77)	(1,21)	(381,2)	(72,1)	(344,3)	(80,1)	(48,9)	(-97,1)	(333,1)	(339,24)	(-86,1)	(-125,1)	(377,1)	
L1D -337>	(0,15)	(337,118)	(336,5)	(338,2)	(335,1)	(1,6)	(48,2)	(62,1)	(282,1)	(-49,1)	(238,1)	(162,1)	(422,1)	(66,1)	(-50,1)	(6,1)	
L1D -336>	(284,1)	(335,4)	(336,106)	(0,7)	(273,2)	(254,2)	(57,1)	(1,6)	(356,1)	(337,22)	(207,1)	(301,1)	(-19,1)	(123,1)	(48,10)	(426,1)	
L1D -335>	(336,15)	(335,25)	(0,30)	(48,12)	(273,2)	(44,6)	(1,10)	(412,1)	(403,1)	(332,1)	(17,1)	(299,1)	(283,1)	(-23,1)	(-22,1)	(-93,1)	
L1D -334>	(0,47)	(44,11)	(352,5)	(48,8)	(334,30)	(340,2)	(1,22)	(337,3)	(273,1)	(245,1)	(335,21)	(387,1)	(311,1)	(11,1)	(70,1)	(75,1)	
L1D -333>	(1,13)	(339,2)	(333,41)	(0,24)	(332,5)	(334,9)	(8,2)	(416,5)	(160,1)	(44,19)	(58,1)	(209,1)	(63,1)	(331,2)	(216,2)	(193,1)	
L1D -332>	(318,2)	(331,2)	(332,57)	(0,45)	(333,7)	(44,17)	(-67,1)	(337,5)	(64,3)	(1,14)	(227,1)	(32,1)	(377,1)	(-142,1)	(120,1)	(-168,1)	
L1D -331>	(0,52)	(330,2)	(331,42)	(332,15)	(44,20)	(336,1)	(64,2)	(400,1)	(1,8)	(129,2)	(306,1)	(171,1)	(300,1)	(301,1)	(194,1)	(292,1)	
L1D -330>	(330,36)	(0,40)	(1,13)	(108,2)	(331,23)	(44,9)	(435,1)	(-38,1)	(-7,2)	(341,1)	(327,1)	(12,1)	(345,1)	(2,1)	(6,1)	(311,1)	
L1D -329>	(330,8)	(44,2)	(0,27)	(-40,1)	(80,1)	(282,1)	(1,16)	(329,16)	(256,1)	(332,1)	(143,1)	(328,4)	(334,1)	(210,1)	(22,1)	(-25,2)	
L1D -328>	(0,26)	(333,3)	(326,4)	(1,23)	(328,48)	(32,1)	(-117,1)	(239,1)	(182,1)	(329,18)	(80,1)	(264,1)	(361,1)	(421,1)	(-56,1)	(3,1)	
L1D -327>	(-6,2)	(0,25)	(327,27)	(1,14)	(48,1)	(189,1)	(140,1)	(15,1)	(437,2)	(328,10)	(238,1)	(240,1)	(338,1)	(326,2)	(378,1)	(345,1)	
L1D -326>	(0,22)	(344,2)	(327,3)	(1,14)	(332,2)	(56,1)	(326,17)	(253,1)	(208,1)	(64,2)	(-56,2)	(347,1)	(123,1)	(349,1)	(173,1)	(-57,1)	
L1D -325>	(325,28)	(1,10)	(356,3)	(0,17)	(-33,4)	(-30,3)	(-24,1)	(64,1)	(353,1)	(326,4)	(377,1)	(274,1)	(135,1)	(211,1)	(373,1)	(220,1)	
L1D -324>	(324,51)	(1,9)	(323,6)	(-63,1)	(0,32)	(84,1)	(94,1)	(22,1)	(322,1)	(271,1)	(321,1)	(325,21)	(310,4)	(335,1)	(280,1)	(-24,1)	
L1D -323>	(322,5)	(321,2)	(0,49)	(1,12)	(-1,2)	(33,5)	(12,1)	(323,59)	(131,1)	(-21,2)	(68,1)	(324,4)	(391,1)	(-136,1)	(273,1)	(-163,1)	
L1D -322>	(33,15)	(328,3)	(0,37)	(342,4)	(322,35)	(323,11)	(1,10)	(321,2)	(69,1)	(479,1)	(45,1)	(395,1)	(405,1)	(4,1)	(31,1)	(64,1)	
L1D -321>	(33,25)	(321,68)	(327,3)	(322,7)	(0,64)	(-3,1)	(326,2)	(-126,1)	(1,13)	(-98,2)	(267,1)	(325,1)	(334,1)	(64,3)	(20,1)	(-29,1)	
L1D -320>	(0,67)	(320,23)	(319,10)	(321,2)	(33,24)	(-80,1)	(307,1)	(318,1)	(326,4)	(57,1)	(6,2)	(325,2)	(1,12)	(64,2)	(-75,1)	(-33,1)	
L1D -319>	(33,26)	(319,113)	(320,7)	(0,69)	(317,3)	(341,2)	(314,2)	(318,5)	(331,1)	(321,1)	(80,1)	(390,1)	(260,2)	(1,13)	(399,1)	(179,1)	
L1D -318>	(0,21)	(318,65)	(319,16)	(42,1)	(316,1)	(33,4)	(-167,1)	(-26,1)	(1,3)	(317,1)	(305,1)	(307,1)	(29,1)	(323,1)	(64,1)	(6,1)	
L1D -317>	(0,30)	(322,3)	(317,77)	(316,4)	(318,6)	(323,1)	(1,9)	(211,1)	(206,1)	(213,1)	(-59,1)	(-76,1)	(220,1)	(281,1)	(268,1)	(287,1)	
L1D -316>	(0,47)	(64,1)	(1,19)	(75,1)	(434,1)	(219,1)	(-51,1)	(161,1)	(315,9)	(317,11)	(185,1)	(194,1)	(316,24)	(-133,1)	(2,1)	(-173,1)	
L1D -315>	(150,1)	(305,1)	(315,77)	(0,44)	(314,6)	(1,14)	(66,1)	(316,15)	(146,1)	(-22,4)	(-28,1)	(29,2)	(154,1)	(353,1)	(26,1)	(409,1)	
L1D -314>	(0,34)	(313,2)	(314,86)	(158,2)	(315,48)	(254,1)	(201,1)	(326,1)	(302,1)	(320,2)	(-40,1)	(35,1)	(1,12)	(-25,1)	(131,1)	(435,2)	
L1D -313>	(0,27)	(485,2)	(-2,1)	(312,4)	(313,31)	(314,6)	(1,7)	(20,1)	(310,1)	(-4,1)	(378,1)	(304,3)	(296,1)	(33,1)	(281,1)	(-24,1)	
L1D -312>	(312,9)	(317,1)	(0,34)	(315,1)	(313,32)	(181,1)	(269,1)	(1,14)	(-29,1)	(-62,1)	(240,1)	(68,1)	(246,1)	(149,1)	(289,1)	(319,1)	
L1D -311>	(279,1)	(311,44)	(-22,1)	(312,3)	(124,1)	(247,1)	(167,1)	(0,29)	(1,14)	(22,5)	(304,1)	(88,1)	(310,9)	(39,1)	(-21,1)	(-47,1)	
L1D -310>	(22,12)	(0,30)	(311,10)	(-11,1)	(252,1)	(312,1)	(313,1)	(1,20)	(-107,1)	(310,33)	(326,1)	(86,1)	(9,1)	(341,1)	(184,1)	(250,1)	
L1D -309>	(1,10)	(22,34)	(26,1)	(19,1)	(310,7)	(20,3)	(37,1)	(-1,1)	(0,26)	(309,13)	(314,2)	(21,2)	(64,2)	(324,1)	(-105,1)	(-110,1)	
L1D -308>	(22,29)	(-12,1)	(307,2)	(0,28)	(15,1)	(337,1)	(1,13)	(309,5)	(308,10)	(379,1)	(133,1)	(303,2)	(279,1)	(21,3)	(396,1)	(-117,1)	
L1D -307>	(22,29)	(0,45)	(21,4)	(1,15)	(307,85)	(312,2)	(18,2)	(306,2)	(308,20)	(313,1)	(-115,1)	(-40,1)	(258,1)	(-12,1)	(-4,1)	(-32,1)	
L1D -306>	(20,6)	(0,48)	(306,55)	(307,19)	(305,4)	(64,1)	(147,1)	(-124,1)	(1,11)	(237,1)	(21,4)	(-8,1)	(22,30)	(293,2)	(311,1)	(164,1)	
L1D -305>	(305,55)	(0,34)	(18,7)	(2,5)	(1,17)	(304,3)	(306,8)	(450,1)	(137,1)	(310,3)	(-179,1)	(178,1)	(63,1)	(224,1)	(150,1)	(128,1)	
L1D -304>	(1,41)	(304,18)	(303,2)	(305,2)	(64,2)	(143,1)	(20,5)	(329,1)	(0,42)	(2,1)	(18,12)	(117,1)	(300,1)	(85,1)	(370,1)	(216,1)	
L1D -303>	(1,58)	(18,8)	(304,5)	(0,62)	(309,2)	(303,45)	(-82,2)	(314,1)	(288,1)	(340,1)	(-127,1)	(64,3)	(347,1)	(-41,3)	(310,1)	(343,1)	
L1D -302>	(47,1)	(89,1)	(134,2)	(302,11)	(303,8)	(1,27)	(14,3)	(18,7)	(257,1)	(-158,1)	(0,33)	(301,5)	(318,1)	(347,1)	(307,1)	(-25,1)	
L1D -301>	(307,5)	(300,10)	(0,40)	(-14,2)	(299,2)	(301,36)	(81,2)	(7,1)	(82,1)	(1,25)	(306,2)	(64,2)	(217,1)	(289,2)	(-85,1)	(-132,1)	
L1D -300>	(-1,3)	(1,24)	(0,44)	(300,107)	(299,3)	(65,7)	(186,1)	(11,7)	(22,1)	(301,20)	(350,1)	(360,1)	(-45,1)	(262,1)	(64,2)	(267,2)	
L1D -299>	(11,39)	(0,59)	(1,15)	(304,2)	(64,2)	(299,38)	(224,2)	(300,9)	(425,4)	(281,1)	(368,1)	(298,9)	(293,2)	(165,2)	(180,1)	(437,1)	
L1D -298>	(297,5)	(0,54)	(11,95)	(298,18)	(1,17)	(-1,3)	(164,1)	(210,1)	(5,2)	(193,1)	(-23,1)	(302,1)	(-5,2)	(299,13)	(-75,3)	(304,5)	
L1D -297>	(1,22)	(0,51)	(11,125)	(298,7)	(257,11)	(127,1)	(297,34)	(296,2)	(307,1)	(157,1)	(2,2)	(-1,8)	(-25,1)	(-2,1)	(302,2)	(-24,1)	
L1D -296>	(0,42)	(11,93)	(296,36)	(297,5)	(267,1)	(295,1)	(1,10)	(-1,2)	(10,2)	(-24,1)	(-25,1)	(-26,1)	(65,2)	(-117,1)	(301,2)	(4,2)	
L1D -295>	(11,84)	(2,4)	(296,3)	(0,45)	(1,26)	(293,1)	(9,2)	(257,9)	(159,1)	(300,2)	(295,20)	(292,1)	(294,1)	(-25,1)	(111,1)	(-92,0)	
L1D -294>	(11,85)	(1,24)	(293,2)	(294,37)	(0,66)	(295,10)	(256,1)	(17,1)	(304,1)	(-171,1)	(-118,2)	(7,3)	(9,7)	(8,5)	(102,1)	(257,8)	
L1D -293>	(0,54)	(1,121)	(-203,2)	(293,65)	(3,2)	(292,5)	(-1,7)	(307,4)	(257,48)	(298,5)	(294,22)	(291,2)	(11,1)	(272,3)	(-59,2)	(2,2)	
L1D -292>	(292,15)	(0,47)	(1,20)	(297,12)	(291,7)	(293,7)	(348,1)	(-4,4)	(126,1)	(4,1)	(77,1)	(320,1)	(298,2)	(21,1)	(354,1)	(161,1)	
L1D -291>	(292,12)	(9,2)	(0,60)	(64,2)	(-1,2)	(-98,4)	(291,63)	(-4,3)	(-11,1)	(1,25)	(290,1)	(-29,1)	(296,13)	(360,1)	(295,1)	(-120,2)	
L1D -290>	(1,34)	(-6,3)	(-1,4)	(0,63)	(65,10)	(290,51)	(289,8)	(3,3)	(247,2)	(291,12)	(295,15)	(283,1)	(-9,1)	(-69,2)	(-70,1)	(281,1)	
L1D -289>	(0,40)	(-71,5)	(289,71)	(290,14)	(288,5)	(1,16)	(102,2)	(-1,7)	(265,2)	(257,1)	(274,1)	(453,1)	(294,13)	(2,1)	(404,1)	(36,1)	
L1D -288>	(0,56)	(293,6)	(303,1)	(-51,1)	(6,1)	(-19,2)	(212,1)	(1,13)	(275,1)	(276,1)	(288,14)	(289,10)	(56,1)	(-158,1)	(374,3)	(150,1)	
L1D -287>	(286,6)	(288,3)	(1,14)	(0,37)	(461,1)	(267,2)	(-145,1)	(-7,1)	(190,1)	(292,11)	(3,1)	(110,1)	(287,49)	(476,1)	(122,1)	(279,1)	
L1D -286>	(287,3)	(329,2)	(380,2)	(1,14)	(166,1)	(286,28)	(291,11)	(3,2)	(-6,1)	(0,32)	(292,13)	(169,1)	(134,1)	(436,1)	(195,1)	(-1,3)	
L1D -285>	(0,35)	(285,16)	(64,5)	(284,3)	(134,1)	(290,19)	(-3,2)	(1,11)	(296,2)	(45,1)	(291,9)	(286,6)	(57,1)	(108,1)	(158,1)	(-1,2)	
L1D -284>	(1,16)	(0,47)	(-2,2)	(285,4)	(40,1)	(290,25)	(332,1)	(337,1)	(234,1)	(6,1)	(64,1)	(29,1)	(270,1)	(295,2)	(-25,1)	(284,29)	
L1D -283>	(-55,1)	(209,1)	(283,56)	(289,14)	(0,50)	(287,1)	(327,7)	(1,15)	(-109,1)	(160,1)	(294,2)	(282,8)	(261,2)	(264,1)	(265,1)	(284,5)	
L1D -282>	(288,9)	(283,23)	(282,91)	(287,5)	(-37,2)	(0,35)	(278,1)	(286,2)	(318,1)	(222,1)	(64,4)	(1,22)	(-1,3)	(237,1)	(233,2)	(264,1)	
L1D -281>	(286,12)	(64,3)	(0,35)	(-77,2)	(281,38)	(282,17)	(234,6)	(1,6)	(154,1)	(235,2)	(280,3)	(233,1)	(244,1)	(208,1)	(313,1)	(287,11)	
L1D -280>	(279,3)	(1,16)	(0,41)	(280,43)	(286,6)	(281,3)	(282,3)	(-1,2)	(285,20)	(308,2)	(269,6)	(-64,1)	(64,2)	(-92,1)	(6,1)	(161,1)	
L1D -279>	(279,72)	(0,68)	(280,10)	(278,5)	(284,24)	(349,3)	(369,1)	(285,26)	(-9,2)	(1,36)	(-5,1)	(-6,2)	(64,2)	(334,1)	(-3,4)	(101,1)	
L1D -278>	(1,74)	(0,34)	(279,7)	(278,48)	(360,2)	(415,1)	(204,1)	(182,1)	(283,15)	(-35,1)	(277,4)	(-8,1)	(161,1)	(64,4)	(416,2)	(19,2)	
L1D -277>	(1,87)	(282,10)	(0,29)	(277,33)	(276,5)	(257,1)	(278,11)	(314,4)	(-60,1)	(-45,1)	(247,1)	(248,2)	(-1,1)	(12,1)	(-164,0)	(14,0)	
L1D -276>	(1,122)	(276,56)	(0,40)	(-9,1)	(42,1)	(277,12)	(287,1)	(153,1)	(-77,1)	(64,1)	(-49,1)	(247,2)	(281,7)	(478,1)	(275,6)	(252,1)	
L1D -275>	(1,99)	(275,20)	(0,23)	(277,1)	(360,1)	(362,2)	(280,6)	(11,1)	(160,1)	(-1,1)	(383,1)	(281,6)	(-46,1)	(276,4)	(40,0)	(387,0)	
L1D -274>	(1,65)	(0,26)	(274,31)	(136,0)	(381,10)	(275,6)	(250,0)	(506,0)	(279,6)	(273,0)	(280,7)	(423,0)	(145,0)	(-67,0)	(-68,0)	(287,0)	
L1D -273>	(273,9)	(0,55)	(-1,1)	(278,1)	(1,85)	(136,19)	(135,11)	(279,10)	(36,1)	(274,8)	(338,2)	(271,2)	(272,3)	(328,1)	(-135,1)	(134,0)	
L1D -272>	(1,52)	(136,20)	(0,86)	(135,15)	(259,3)	(-1,17)	(272,57)	(273,28)	(278,9)	(-136,15)	(-135,18)	(270,3)	(271,1)	(285,3)	(2,7)	(-128,4)	
L1D -271>	(-1,90)	(272,20)	(0,96)	(271,122)	(277,5)	(268,2)	(276,8)	(270,10)	(3,4)	(1,14)	(-2,1)	(165,1)	(64,4)	(135,9)	(167,1)	(127,1)	
L1D -270>	(0,86)	(270,90)	(-17,4)	(446,1)	(271,9)	(269,8)	(151,1)	(-1,35)	(171,1)	(287,1)	(153,1)	(410,1)	(1,15)	(275,17)	(276,14)	(334,1)	
L1D -269>	(-1,19)	(256,2)	(1,21)	(0,87)	(268,7)	(269,115)	(270,16)	(274,17)	(250,2)	(236,1)	(255,1)	(-2,2)	(95,1)	(133,1)	(273,1)	(275,10)	
L1D -268>	(268,72)	(0,41)	(270,1)	(273,14)	(1,11)	(85,1)	(267,7)	(350,1)	(269,18)	(358,1)	(-1,5)	(158,1)	(274,14)	(-2,1)	(64,1)	(238,1)	
L1D -267>	(273,3)	(0,50)	(267,103)	(1,14)	(268,23)	(257,1)	(-36,1)	(239,1)	(230,1)	(227,1)	(279,1)	(64,3)	(243,1)	(272,17)	(266,8)	(-1,4)	
L1D -266>	(1,11)	(266,85)	(-8,1)	(267,17)	(225,1)	(0,26)	(2,1)	(271,5)	(282,1)	(44,1)	(314,1)	(176,1)	(159,1)	(297,3)	(97,1)	(-1,3)	
L1D -265>	(0,38)	(270,13)	(265,25)	(266,11)	(1,14)	(271,1)	(-7,2)	(106,1)	(295,1)	(164,1)	(113,2)	(241,1)	(31,1)	(269,1)	(-67,1)	(2,1)	
L1D -264>	(1,26)	(264,19)	(-2,2)	(-56,1)	(274,1)	(166,1)	(334,1)	(0,52)	(269,14)	(270,17)	(64,1)	(261,2)	(25,1)	(342,1)	(303,1)	(268,3)	
L1D -263>	(0,47)	(264,10)	(1,21)	(266,3)	(263,42)	(-149,2)	(7,1)	(262,2)	(269,17)	(6,1)	(268,27)	(36,1)	(130,1)	(-5,2)	(-9,1)	(256,1)	
L1D -262>	(271,2)	(3,3)	(268,16)	(0,47)	(-1,2)	(262,31)	(-86,1)	(249,1)	(263,11)	(4,2)	(255,1)	(64,4)	(1,21)	(71,1)	(-9,2)	(267,7)	
L1D -261>	(0,45)	(1,20)	(261,11)	(134,1)	(260,1)	(4,3)	(267,20)	(411,1)	(340,1)	(266,1)	(187,1)	(-1,2)	(-77,1)	(156,1)	(-181,1)	(-69,1)	
L1D -260>	(266,18)	(1,19)	(260,16)	(261,10)	(238,2)	(0,36)	(282,2)	(258,1)	(125,1)	(265,3)	(233,1)	(128,1)	(-24,1)	(-5,1)	(-22,1)	(477,1)	
L1D -259>	(265,11)	(-1,3)	(259,15)	(1,12)	(0,46)	(264,14)	(260,11)	(237,5)	(-3,1)	(270,1)	(199,1)	(35,2)	(141,1)	(-6,1)	(-58,1)	(419,1)	
L1D -258>	(258,31)	(263,16)	(64,2)	(257,2)	(1,23)	(259,9)	(262,1)	(0,61)	(-1,1)	(222,1)	(5,1)	(-84,1)	(276,1)	(252,2)	(264,13)	(275,1)	
L1D -257>	(258,5)	(5,2)	(256,3)	(257,12)	(0,51)	(327,3)	(263,25)	(132,1)	(1,13)	(262,17)	(175,1)	(-172,1)	(4,2)	(211,1)	(64,2)	(7,2)	
L1D -256>	(262,4)	(1,17)	(0,48)	(256,31)	(255,2)	(284,1)	(70,1)	(64,2)	(-3,1)	(-18,1)	(257,7)	(123,1)	(260,2)	(-58,1)	(261,17)	(179,1)	
L1D -255>	(255,52)	(254,8)	(0,72)	(64,3)	(256,7)	(260,25)	(263,2)	(1,16)	(-10,2)	(297,2)	(-40,2)	(41,1)	(108,1)	(-1,1)	(10,1)	(-13,1)	
L1D -254>	(253,2)	(1,27)	(255,20)	(254,33)	(0,35)	(259,17)	(-39,1)	(-2,1)	(-101,1)	(196,1)	(267,1)	(260,4)	(142,1)	(241,1)	(100,1)	(-1,2)	
L1D -253>	(253,22)	(259,22)	(461,6)	(0,56)	(245,2)	(-62,9)	(252,3)	(277,1)	(258,28)	(1,15)	(-10,1)	(-13,1)	(254,14)	(267,1)	(109,1)	(264,1)	
L1D -252>	(254,2)	(257,26)	(253,21)	(-158,2)	(1,18)	(0,66)	(-109,6)	(252,114)	(258,14)	(251,4)	(247,3)	(268,2)	(-1,3)	(181,2)	(246,3)	(42,1)	
L1D -251>	(250,6)	(64,4)	(0,59)	(15,1)	(252,12)	(1,19)	(219,1)	(257,30)	(256,10)	(-69,1)	(-70,1)	(5,1)	(-1,5)	(251,42)	(-21,3)	(246,5)	
L1D -250>	(82,1)	(0,55)	(250,42)	(1,22)	(199,1)	(256,14)	(64,3)	(304,1)	(-192,1)	(266,1)	(255,5)	(249,8)	(-96,1)	(-69,2)	(268,1)	(-21,3)	
L1D -249>	(0,58)	(1,7)	(64,2)	(249,66)	(261,3)	(255,15)	(271,2)	(-22,6)	(-163,1)	(282,1)	(207,1)	(250,12)	(131,1)	(247,1)	(241,1)	(-1,2)	
L1D -248>	(0,46)	(7,2)	(248,20)	(290,1)	(64,2)	(1,14)	(253,25)	(254,25)	(249,1)	(-6,1)	(-7,1)	(152,1)	(171,1)	(252,2)	(-70,1)	(236,1)	
L1D -247>	(1,33)	(0,43)	(252,26)	(247,27)	(-77,9)	(248,28)	(-1,4)	(118,1)	(253,21)	(276,2)	(3,1)	(-39,2)	(218,1)	(205,1)	(-22,2)	(337,1)	
L1D -246>	(252,30)	(-115,2)	(246,62)	(251,14)	(-121,4)	(-2,1)	(57,1)	(0,64)	(-9,2)	(1,22)	(-125,1)	(247,12)	(-30,1)	(-168,1)	(28,1)	(65,2)	
L1D -245>	(1,9)	(245,89)	(251,3)	(0,41)	(246,38)	(250,18)	(-23,2)	(-150,4)	(244,3)	(37,1)	(-3,1)	(287,1)	(261,1)	(-13,1)	(64,3)	(202,1)	
L1D -244>	(-82,6)	(1,28)	(0,38)	(249,26)	(245,7)	(244,8)	(-32,1)	(243,8)	(-106,1)	(248,2)	(-86,1)	(310,1)	(282,1)	(408,1)	(116,2)	(-2,2)	
L1D -243>	(243,80)	(-19,2)	(1,22)	(248,16)	(0,63)	(-61,2)	(244,11)	(254,1)	(242,11)	(109,1)	(98,1)	(-69,2)	(396,1)	(-124,1)	(45,1)	(27,1)	
L1D -242>	(248,27)	(0,46)	(241,5)	(2,11)	(267,1)	(94,1)	(242,47)	(243,29)	(258,2)	(247,23)	(264,1)	(66,1)	(253,3)	(1,25)	(-11,1)	(106,1)	
L1D -241>	(240,5)	(1,30)	(2,28)	(0,66)	(-1,4)	(246,22)	(279,2)	(-39,1)	(247,13)	(-57,1)	(298,1)	(243,2)	(242,9)	(415,1)	(241,57)	(380,1)	
L1D -240>	(1,106)	(0,56)	(240,52)	(246,16)	(251,2)	(2,7)	(-39,7)	(241,11)	(245,7)	(-1,1)	(239,4)	(47,2)	(355,2)	(7,1)	(3,1)	(-2,1)	
L1D -239>	(1,89)	(0,59)	(239,25)	(413,3)	(-1,6)	(414,3)	(2,3)	(254,1)	(71,1)	(245,14)	(396,1)	(384,1)	(247,1)	(238,2)	(53,1)	(240,8)	
L1D -238>	(1,85)	(0,57)	(238,11)	(239,15)	(257,2)	(-149,1)	(249,1)	(-89,1)	(113,1)	(129,1)	(244,9)	(260,1)	(194,1)	(121,1)	(272,1)	(-1,2)	
L1D -237>	(1,78)	(236,3)	(0,66)	(-1,3)	(237,14)	(238,14)	(36,1)	(242,16)	(243,7)	(-78,1)	(2,4)	(87,1)	(95,1)	(336,1)	(301,1)	(241,1)	
L1D -236>	(1,46)	(0,60)	(236,116)	(242,22)	(228,16)	(237,6)	(64,3)	(2,5)	(349,1)	(8,2)	(-64,1)	(182,1)	(-1,4)	(241,18)	(269,1)	(5,1)	
L1D -235>	(235,48)	(236,23)	(227,3)	(1,53)	(229,4)	(241,25)	(239,2)	(243,2)	(0,57)	(-113,17)	(-167,1)	(240,25)	(281,1)	(-1,4)	(276,1)	(-120,1)	
L1D -234>	(0,75)	(233,5)	(1,49)	(234,44)	(-40,2)	(235,8)	(2,3)	(257,2)	(-12,3)	(239,25)	(128,1)	(176,1)	(216,1)	(-219,1)	(254,1)	(-1,3)	
L1D -233>	(1,69)	(233,85)	(0,53)	(238,16)	(232,5)	(-13,2)	(2,9)	(-1,2)	(255,3)	(239,2)	(234,25)	(259,2)	(64,3)	(-29,1)	(228,3)	(252,1)	
L1D -232>	(296,7)	(-121,2)	(1,72)	(232,31)	(255,4)	(0,37)	(237,14)	(65,11)	(2,5)	(220,3)	(257,4)	(233,11)	(238,7)	(231,5)	(64,4)	(311,1)	
L1D -231>	(1,122)	(0,60)	(7,2)	(237,28)	(236,21)	(-1,2)	(231,56)	(230,4)	(232,15)	(2,7)	(253,4)	(235,3)	(170,1)	(257,18)	(16,1)	(242,4)	
L1D -230>	(235,25)	(0,56)	(229,4)	(230,84)	(231,16)	(257,4)	(124,1)	(1,72)	(389,1)	(203,1)	(-1,12)	(236,17)	(36,1)	(56,1)	(2,1)	(180,1)	
L1D -229>	(0,59)	(228,6)	(1,59)	(257,4)	(-2,2)	(64,1)	(230,16)	(-4,1)	(229,41)	(-42,1)	(202,1)	(234,5)	(73,1)	(-21,1)	(-1,4)	(235,18)	
L1D -228>	(0,48)	(228,41)	(229,8)	(-46,3)	(-11,2)	(-110,4)	(234,16)	(18,1)	(239,1)	(105,2)	(-48,1)	(49,1)	(65,2)	(1,25)	(227,8)	(-229,1)	
L1D -227>	(-122,3)	(228,26)	(-202,3)	(64,1)	(1,28)	(232,7)	(91,1)	(0,37)	(233,11)	(-223,1)	(-4,1)	(-93,1)	(-1,9)	(227,53)	(206,1)	(115,1)	
L1D -226>	(0,42)	(231,23)	(227,7)	(226,27)	(271,2)	(282,3)	(232,18)	(154,2)	(1,60)	(225,2)	(-26,1)	(32,3)	(57,1)	(162,1)	(209,2)	(404,1)	
L1D -225>	(357,2)	(231,19)	(0,57)	(1,23)	(-44,1)	(226,29)	(225,70)	(-2,1)	(296,2)	(3,1)	(230,19)	(257,4)	(-4,2)	(244,1)	(-58,1)	(64,2)	
L1D -224>	(0,63)	(224,39)	(-135,3)	(223,7)	(230,26)	(-20,2)	(1,23)	(229,21)	(249,1)	(137,1)	(-9,2)	(288,1)	(148,1)	(149,3)	(225,12)	(-30,1)	
L1D -223>	(0,60)	(222,8)	(-126,5)	(1,21)	(224,3)	(229,1)	(223,56)	(228,21)	(64,2)	(4,1)	(259,1)	(349,1)	(325,1)	(145,1)	(-1,1)	(233,3)	
L1D -222>	(0,62)	(222,67)	(1,19)	(376,4)	(419,3)	(227,21)	(241,2)	(261,1)	(-1,1)	(342,1)	(31,1)	(223,19)	(228,7)	(-30,1)	(193,1)	(298,1)	
L1D -221>	(0,41)	(220,7)	(64,6)	(268,2)	(1,11)	(194,1)	(226,14)	(26,1)	(225,2)	(354,1)	(-90,3)	(-35,1)	(-25,1)	(221,31)	(-12,1)	(149,2)	
L1D -220>	(186,7)	(178,3)	(220,64)	(1,16)	(0,44)	(226,23)	(225,25)	(228,3)	(143,2)	(219,6)	(218,2)	(194,3)	(192,1)	(87,2)	(-104,1)	(64,2)	
L1D -219>	(219,101)	(220,20)	(0,59)	(216,3)	(79,2)	(1,32)	(225,22)	(224,35)	(-9,3)	(289,6)	(425,1)	(-56,1)	(-6,1)	(-17,1)	(100,1)	(210,1)	
L1D -218>	(204,3)	(217,11)	(1,17)	(0,51)	(346,2)	(224,16)	(218,26)	(246,1)	(219,20)	(-95,5)	(5,2)	(-9,1)	(15,1)	(223,4)	(215,2)	(216,1)	
L1D -217>	(1,28)	(0,56)	(217,94)	(222,11)	(-25,3)	(216,3)	(223,3)	(218,19)	(452,2)	(2,3)	(344,1)	(263,1)	(-45,1)	(190,1)	(-24,2)	(76,1)	
L1D -216>	(216,61)	(217,25)	(350,2)	(0,64)	(222,20)	(-133,2)	(230,3)	(218,2)	(41,4)	(215,2)	(-73,2)	(131,1)	(2,1)	(1,23)	(238,2)	(220,4)	
L1D -215>	(1,22)	(215,38)	(220,29)	(214,10)	(0,36)	(216,16)	(-127,2)	(230,5)	(219,2)	(221,17)	(-27,8)	(64,8)	(239,1)	(2,1)	(-1,1)	(5,2)	
L1D -214>	(209,2)	(0,76)	(220,23)	(425,2)	(214,99)	(213,5)	(212,4)	(-65,3)	(219,22)	(215,11)	(1,22)	(-172,2)	(237,1)	(299,1)	(277,1)	(199,3)	
L1D -213>	(0,61)	(1,27)	(214,28)	(213,63)	(5,2)	(-1,3)	(240,3)	(219,38)	(-4,2)	(212,4)	(218,23)	(224,3)	(-193,1)	(-44,2)	(414,1)	(210,1)	
L1D -212>	(210,1)	(231,1)	(1,9)	(0,25)	(200,3)	(213,8)	(64,2)	(211,4)	(21,1)	(109,1)	(-77,1)	(217,10)	(218,1)	(212,65)	(4,1)	(150,0)	
L1D -211>	(0,69)	(216,24)	(210,14)	(217,9)	(212,15)	(64,6)	(1,25)	(206,2)	(262,2)	(211,41)	(174,8)	(338,1)	(222,1)	(100,1)	(202,1)	(102,1)	
L1D -210>	(215,23)	(216,1)	(1,18)	(210,91)	(209,8)	(0,68)	(-3,2)	(-114,3)	(256,3)	(211,23)	(189,2)	(301,2)	(-12,4)	(-214,2)	(64,4)	(208,4)	
L1D -209>	(0,69)	(209,96)	(208,11)	(64,5)	(210,14)	(214,26)	(-113,2)	(-1,3)	(1,27)	(223,1)	(215,32)	(-24,1)	(117,1)	(22,1)	(-142,1)	(83,1)	
L1D -208>	(209,16)	(208,120)	(0,75)	(1,31)	(-1,2)	(207,10)	(64,5)	(213,28)	(206,4)	(219,4)	(214,22)	(222,1)	(-46,1)	(281,1)	(147,1)	(221,1)	
L1D -207>	(-253,9)	(213,24)	(0,38)	(1,18)	(64,3)	(207,25)	(2,2)	(212,4)	(208,16)	(19,1)	(210,1)	(-1,5)	(358,1)	(229,1)	(-16,1)	(109,1)	
L1D -206>	(1,24)	(-2,2)	(211,6)	(2,3)	(207,7)	(206,16)	(0,39)	(212,21)	(201,1)	(3,1)	(-50,1)	(204,2)	(217,1)	(-3,3)	(23,1)	(170,1)	
L1D -205>	(0,52)	(-93,2)	(1,20)	(64,5)	(25,2)	(206,21)	(210,1)	(-217,1)	(216,1)	(205,17)	(234,1)	(-250,1)	(297,1)	(211,16)	(2,1)	(-175,2)	
L1D -204>	(203,10)	(204,43)	(64,1)	(0,64)	(227,2)	(209,25)	(214,2)	(2,1)	(1,17)	(205,9)	(210,9)	(-3,2)	(462,1)	(-1,1)	(254,1)	(118,1)	
L1D -203>	(0,58)	(204,12)	(203,46)	(-34,2)	(208,24)	(-184,3)	(1,20)	(209,19)	(-195,1)	(-1,7)	(-65,1)	(453,1)	(202,9)	(385,2)	(225,3)	(497,1)	
L1D -202>	(10,13)	(0,70)	(1,23)	(209,2)	(208,22)	(201,7)	(430,3)	(127,9)	(203,6)	(196,1)	(207,24)	(-9,2)	(202,29)	(317,1)	(356,1)	(87,1)	
L1D -201>	(201,61)	(83,1)	(202,18)	(1,23)	(0,58)	(64,6)	(16,1)	(200,8)	(172,1)	(206,30)	(205,1)	(297,1)	(207,5)	(199,1)	(129,1)	(-70,2)	
L1D -200>	(0,35)	(199,5)	(1,15)	(198,2)	(23,1)	(200,90)	(-139,1)	(10,8)	(-114,2)	(205,9)	(16,1)	(206,4)	(64,2)	(214,1)	(201,12)	(267,1)	
L1D -199>	(11,4)	(204,5)	(1,6)	(200,4)	(199,99)	(198,5)	(-117,3)	(197,1)	(-92,2)	(188,1)	(150,1)	(368,1)	(90,1)	(272,0)	(0,13)	(234,0)	
L1D -198>	(198,116)	(0,35)	(199,50)	(201,1)	(204,9)	(4,1)	(64,4)	(3,1)	(97,1)	(-123,4)	(-12,1)	(226,1)	(1,10)	(255,1)	(197,4)	(203,8)	
L1D -197>	(11,16)	(197,69)	(198,16)	(0,82)	(178,1)	(1,21)	(219,1)	(212,1)	(208,1)	(232,1)	(281,1)	(-137,1)	(203,26)	(202,31)	(-7,1)	(-9,4)	
L1D -196>	(197,16)	(196,69)	(0,63)	(201,8)	(-222,4)	(1,37)	(202,31)	(2,7)	(-21,7)	(207,3)	(64,2)	(195,5)	(424,1)	(351,1)	(234,1)	(-109,1)	
L1D -195>	(196,10)	(195,72)	(0,56)	(194,16)	(142,3)	(1,26)	(2,35)	(201,21)	(238,2)	(112,1)	(288,1)	(-207,1)	(3,3)	(193,1)	(-5,1)	(200,8)	
L1D -194>	(0,53)	(1,53)	(193,7)	(194,51)	(195,7)	(199,3)	(200,23)	(64,4)	(220,1)	(-13,1)	(-47,2)	(196,1)	(300,1)	(21,2)	(234,1)	(205,3)	
L1D -193>	(1,89)	(205,5)	(0,29)	(193,9)	(194,5)	(-2,2)	(198,10)	(388,1)	(-1,2)	(192,2)	(238,2)	(257,4)	(199,3)	(64,1)	(189,1)	(69,1)	
L1D -192>	(1,30)	(-11,3)	(198,21)	(197,39)	(0,66)	(430,2)	(191,5)	(193,30)	(256,2)	(64,7)	(-72,7)	(192,18)	(180,1)	(-5,1)	(250,1)	(-79,1)	
L1D -191>	(196,31)	(1,35)	(191,38)	(0,100)	(-1,2)	(-9,4)	(181,6)	(64,3)	(208,2)	(136,1)	(197,33)	(35,1)	(6,1)	(192,14)	(9,1)	(40,1)	
L1D -190>	(-1,3)	(1,34)	(41,2)	(0,55)	(191,14)	(190,91)	(58,1)	(154,1)	(-23,3)	(175,2)	(-66,1)	(23,3)	(160,1)	(138,1)	(195,26)	(189,9)	
L1D -189>	(176,3)	(370,3)	(188,5)	(189,68)	(0,65)	(178,6)	(190,20)	(279,2)	(195,8)	(1,26)	(110,1)	(201,4)	(194,30)	(-2,1)	(342,1)	(-3,1)	
L1D -188>	(188,99)	(189,22)	(1,29)	(193,26)	(0,55)	(113,2)	(186,2)	(253,2)	(194,5)	(-20,7)	(64,7)	(-3,2)	(-227,2)	(137,2)	(216,1)	(187,12)	
L1D -187>	(187,107)	(1,5)	(-11,1)	(188,12)	(0,14)	(-10,6)	(186,4)	(193,7)	(109,1)	(192,1)	(278,1)	(-143,1)	(402,1)	(399,1)	(368,0)	(199,1)	
L1D -186>	(0,73)	(191,42)	(187,85)	(186,95)	(-18,3)	(1,21)	(192,32)	(185,4)	(216,2)	(157,1)	(61,5)	(-4,2)	(6,1)	(173,1)	(84,1)	(59,3)	
L1D -185>	(184,14)	(185,46)	(186,27)	(190,2)	(255,2)	(-183,2)	(1,16)	(0,52)	(116,2)	(232,2)	(-118,1)	(157,1)	(64,2)	(191,43)	(-42,1)	(171,1)	
L1D -184>	(0,56)	(184,44)	(185,19)	(167,2)	(190,23)	(388,2)	(1,23)	(147,3)	(-120,6)	(252,1)	(64,4)	(207,1)	(-67,1)	(189,3)	(195,3)	(468,1)	
L1D -183>	(183,44)	(0,47)	(189,16)	(1,23)	(-34,2)	(-12,1)	(239,1)	(178,4)	(155,1)	(-24,1)	(184,6)	(188,3)	(39,1)	(-4,1)	(-68,1)	(-83,1)	
L1D -182>	(182,66)	(183,10)	(187,26)	(0,63)	(272,2)	(1,22)	(194,2)	(181,4)	(216,3)	(101,1)	(188,24)	(-9,2)	(298,1)	(208,1)	(14,1)	(13,1)	
L1D -181>	(0,68)	(-25,3)	(181,38)	(182,11)	(-85,4)	(1,28)	(186,38)	(187,23)	(180,14)	(-189,3)	(-3,2)	(179,2)	(-1,2)	(64,6)	(321,1)	(417,1)	
L1D -180>	(1,15)	(2,2)	(186,12)	(0,44)	(-2,1)	(181,21)	(184,1)	(178,1)	(185,18)	(180,66)	(179,1)	(109,1)	(64,3)	(99,1)	(191,2)	(67,1)	
L1D -179>	(147,20)	(180,74)	(179,112)	(1,26)	(184,25)	(271,2)	(0,70)	(308,2)	(121,2)	(-199,2)	(318,2)	(178,2)	(-89,1)	(166,1)	(161,2)	(150,1)	
L1D -178>	(1,27)	(177,13)	(179,14)	(178,65)	(0,76)	(-67,2)	(183,26)	(180,7)	(9,1)	(176,2)	(133,2)	(-12,1)	(-101,1)	(-16,1)	(20,1)	(210,1)	
L1D -177>	(0,73)	(1,19)	(177,126)	(332,10)	(176,26)	(93,2)	(269,5)	(175,5)	(-1,4)	(420,4)	(178,20)	(435,1)	(182,15)	(421,1)	(21,1)	(-170,1)	
L1D -176>	(176,112)	(0,13)	(174,1)	(177,3)	(175,11)	(1,5)	(61,1)	(178,1)	(-122,1)	(-11,1)	(2,1)	(21,1)	(182,2)	(181,1)	(-12,1)	(22,2)	
L1D -175>	(175,116)	(176,35)	(0,16)	(-65,1)	(174,4)	(195,1)	(181,4)	(197,1)	(22,4)	(21,7)	(1,4)	(168,1)	(-2,1)	(-228,1)	(348,1)	(180,4)	
L1D -174>	(0,89)	(151,2)	(102,2)	(175,25)	(21,31)	(177,4)	(1,16)	(217,3)	(-4,6)	(-2,3)	(180,25)	(179,2)	(174,88)	(22,1)	(-47,1)	(95,1)	
L1D -173>	(0,67)	(40,11)	(172,3)	(162,2)	(179,25)	(1,22)	(173,74)	(53,2)	(82,3)	(81,23)	(-287,2)	(3,1)	(130,1)	(57,1)	(174,13)	(119,1)	
L1D -172>	(181,1)	(0,70)	(178,24)	(172,22)	(171,5)	(385,1)	(386,1)	(1,22)	(-5,1)	(219,3)	(2,2)	(163,1)	(173,8)	(222,2)	(-1,2)	(64,5)	
L1D -171>	(0,69)	(1,18)	(177,22)	(64,4)	(171,41)	(170,3)	(-1,2)	(-5,8)	(119,6)	(176,30)	(172,11)	(6,2)	(62,1)	(458,1)	(107,1)	(414,1)	
L1D -170>	(64,2)	(170,107)	(1,23)	(0,87)	(77,3)	(169,8)	(196,22)	(240,1)	(183,1)	(-87,1)	(175,19)	(158,3)	(176,27)	(66,1)	(367,1)	(171,20)	
L1D -169>	(169,104)	(170,30)	(0,83)	(-105,3)	(226,3)	(168,14)	(-8,2)	(-40,1)	(215,2)	(1,23)	(174,29)	(238,1)	(201,1)	(112,2)	(175,13)	(-4,2)	
L1D -168>	(1,14)	(64,3)	(-276,1)	(171,1)	(168,66)	(167,3)	(0,55)	(4,1)	(228,1)	(173,13)	(-34,2)	(174,1)	(-108,1)	(169,17)	(-20,1)	(-1,1)	
L1D -167>	(-81,2)	(167,127)	(1,25)	(172,24)	(168,42)	(332,5)	(0,67)	(-60,3)	(178,2)	(153,2)	(64,2)	(164,2)	(183,2)	(-15,4)	(253,1)	(210,2)	
L1D -166>	(171,24)	(167,14)	(166,51)	(0,56)	(165,12)	(1,17)	(236,2)	(-8,3)	(164,2)	(-1,2)	(141,1)	(-77,1)	(158,2)	(65,5)	(-15,3)	(58,1)	
L1D -165>	(0,55)	(170,27)	(-5,2)	(1,16)	(166,21)	(165,120)	(64,5)	(-158,2)	(20,2)	(129,1)	(11,1)	(171,31)	(263,1)	(106,1)	(34,1)	(-187,1)	
L1D -164>	(164,37)	(11,87)	(0,83)	(1,10)	(-52,7)	(169,17)	(163,7)	(76,1)	(170,21)	(165,20)	(-24,6)	(-26,2)	(-1,2)	(-23,4)	(-86,3)	(-44,2)	
L1D -163>	(11,86)	(0,112)	(-25,8)	(164,11)	(162,8)	(163,62)	(64,1)	(10,81)	(-23,4)	(1,19)	(169,30)	(161,3)	(-24,11)	(174,3)	(-11,1)	(187,1)	
L1D -162>	(10,85)	(0,74)	(161,4)	(1,13)	(11,8)	(-25,6)	(-66,2)	(168,16)	(-62,2)	(162,81)	(166,1)	(179,1)	(163,18)	(439,1)	(-208,1)	(-29,1)	
L1D -161>	(1,24)	(161,94)	(160,6)	(162,24)	(167,21)	(-1,2)	(0,76)	(166,3)	(10,13)	(187,1)	(-232,1)	(205,1)	(211,1)	(164,2)	(372,1)	(68,1)	
L1D -160>	(159,10)	(-155,3)	(160,73)	(161,16)	(0,86)	(-46,52)	(2,3)	(166,21)	(165,27)	(-85,2)	(107,1)	(147,3)	(11,3)	(110,1)	(-77,2)	(1,26)	
L1D -159>	(0,56)	(159,75)	(1,14)	(199,1)	(158,6)	(160,12)	(165,23)	(31,1)	(157,1)	(3,1)	(164,17)	(64,1)	(162,1)	(147,1)	(82,1)	(432,1)	
L1D -158>	(159,20)	(0,77)	(158,101)	(206,1)	(157,4)	(163,26)	(1,26)	(-41,1)	(164,16)	(-35,3)	(23,1)	(12,1)	(169,3)	(-142,2)	(-25,1)	(467,1)	
L1D -157>	(0,41)	(157,89)	(158,16)	(205,1)	(155,1)	(156,6)	(162,22)	(198,1)	(87,1)	(72,9)	(-133,1)	(1,13)	(201,1)	(107,1)	(66,1)	(130,2)	
L1D -156>	(155,14)	(154,3)	(237,4)	(157,16)	(241,4)	(-10,8)	(-177,12)	(-93,3)	(0,98)	(161,27)	(-92,1)	(1,43)	(156,63)	(-1,3)	(-2,3)	(10,2)	
L1D -155>	(0,25)	(1,11)	(154,13)	(153,2)	(-32,6)	(155,104)	(156,5)	(161,1)	(188,1)	(-13,1)	(160,9)	(-112,1)	(5,1)	(162,1)	(139,1)	(317,1)	
L1D -154>	(154,108)	(155,53)	(0,30)	(153,7)	(9,1)	(1,8)	(160,9)	(-3,1)	(159,15)	(326,1)	(142,1)	(146,1)	(143,2)	(169,1)	(141,1)	(144,1)	
L1D -153>	(227,3)	(0,95)	(300,3)	(154,43)	(-222,4)	(155,3)	(130,3)	(1,46)	(-1,1)	(285,2)	(158,26)	(140,2)	(141,2)	(153,111)	(64,5)	(159,25)	
L1D -152>	(0,42)	(151,4)	(152,70)	(1,18)	(64,2)	(158,18)	(-52,1)	(-8,2)	(-9,1)	(104,1)	(23,1)	(139,1)	(153,20)	(193,2)	(156,0)	(259,1)	
L1D -151>	(150,14)	(151,111)	(152,44)	(0,89)	(1,37)	(247,3)	(157,32)	(-31,3)	(156,3)	(-12,2)	(130,2)	(292,1)	(369,1)	(267,1)	(11,3)	(-200,1)	
L1D -150>	(-30,2)	(199,2)	(0,86)	(150,125)	(145,4)	(149,9)	(1,26)	(146,2)	(396,3)	(213,1)	(10,3)	(-15,2)	(98,1)	(156,32)	(-26,1)	(151,38)	
L1D -149>	(61,7)	(152,1)	(150,19)	(149,103)	(148,5)	(0,69)	(136,5)	(1,34)	(205,1)	(232,1)	(7,2)	(11,1)	(154,20)	(151,1)	(155,22)	(145,1)	
L1D -148>	(148,90)	(150,3)	(1,67)	(154,32)	(147,14)	(0,102)	(149,51)	(82,2)	(-109,2)	(274,1)	(153,26)	(425,2)	(436,1)	(251,1)	(-118,1)	(217,1)	
L1D -147>	(147,73)	(148,12)	(0,47)	(-128,2)	(1,35)	(152,27)	(-23,2)	(129,2)	(149,1)	(-9,1)	(146,5)	(113,1)	(-55,1)	(153,23)	(156,1)	(-32,1)	
L1D -146>	(1,70)	(22,1)	(113,5)	(146,85)	(147,17)	(0,62)	(112,1)	(151,21)	(145,7)	(50,1)	(316,1)	(152,4)	(-153,1)	(128,1)	(97,1)	(246,1)	
L1D -145>	(0,74)	(145,112)	(1,117)	(144,5)	(146,34)	(334,2)	(-313,3)	(11,2)	(150,43)	(-24,2)	(261,1)	(127,1)	(-88,2)	(187,1)	(5,1)	(-308,1)	
L1D -144>	(0,63)	(144,60)	(216,2)	(149,30)	(145,22)	(101,2)	(1,27)	(-126,12)	(15,8)	(150,3)	(192,2)	(143,7)	(-140,4)	(237,3)	(-1,2)	(211,1)	
L1D -143>	(142,6)	(0,95)	(1,31)	(143,96)	(4,2)	(218,2)	(32,1)	(128,2)	(11,5)	(198,2)	(144,28)	(53,1)	(19,1)	(149,30)	(148,28)	(160,2)	
L1D -142>	(1,30)	(142,83)	(0,91)	(50,3)	(149,3)	(143,19)	(141,9)	(-271,3)	(147,36)	(-9,6)	(144,6)	(119,2)	(148,37)	(140,6)	(10,1)	(64,3)	
L1D -141>	(0,50)	(141,103)	(142,14)	(-6,1)	(149,1)	(1,22)	(147,26)	(146,5)	(-129,1)	(140,6)	(176,1)	(-17,1)	(-111,1)	(152,1)	(144,1)	(60,1)	
L1D -140>	(1,23)	(0,73)	(140,93)	(146,17)	(139,4)	(-96,2)	(141,15)	(-347,2)	(127,1)	(94,1)	(-199,1)	(261,1)	(-27,1)	(11,2)	(64,1)	(137,1)	
L1D -139>	(0,90)	(140,27)	(1,55)	(12,2)	(-31,3)	(341,3)	(145,44)	(144,2)	(85,2)	(138,6)	(141,2)	(139,85)	(-12,3)	(218,2)	(11,3)	(67,2)	
L1D -138>	(0,101)	(-71,1)	(1,41)	(-5,2)	(21,5)	(141,2)	(139,20)	(144,35)	(143,38)	(358,2)	(-80,2)	(96,6)	(184,3)	(138,73)	(37,2)	(300,2)	
L1D -137>	(1,103)	(0,92)	(142,28)	(135,10)	(143,31)	(137,43)	(-103,1)	(138,18)	(136,12)	(-3,2)	(-62,5)	(-72,3)	(-94,2)	(-12,2)	(38,2)	(-162,2)	
L1D -136>	(0,71)	(-11,1)	(-6,1)	(136,64)	(137,14)	(133,2)	(142,20)	(141,25)	(-1,3)	(132,2)	(1,34)	(147,2)	(53,3)	(52,1)	(139,1)	(163,1)	
L1D -135>	(0,72)	(140,21)	(90,1)	(-1,22)	(1,20)	(141,3)	(-2,3)	(143,1)	(134,6)	(137,1)	(2,2)	(194,1)	(-109,2)	(136,7)	(248,1)	(135,25)	
L1D -134>	(-1,21)	(0,116)	(133,16)	(125,2)	(137,2)	(197,2)	(178,3)	(139,37)	(72,78)	(1,32)	(134,97)	(135,18)	(107,3)	(-67,3)	(270,3)	(237,1)	
L1D -133>	(-1,7)	(138,33)	(-216,3)	(133,104)	(135,4)	(0,73)	(1,17)	(196,2)	(10,3)	(134,17)	(172,2)	(131,2)	(132,2)	(350,3)	(11,1)	(-181,2)	
L1D -132>	(111,4)	(1,30)	(0,108)	(138,38)	(131,16)	(137,46)	(133,38)	(132,82)	(-118,3)	(-117,3)	(-225,4)	(279,2)	(226,3)	(146,2)	(82,1)	(72,2)	
L1D -131>	(137,25)	(-90,3)	(1,19)	(132,21)	(-1,4)	(0,64)	(216,4)	(-38,2)	(136,28)	(131,88)	(177,1)	(-9,2)	(-118,1)	(-48,1)	(130,10)	(32,3)	
L1D -130>	(130,112)	(0,96)	(-19,5)	(131,39)	(109,2)	(33,2)	(136,43)	(135,8)	(252,3)	(129,7)	(174,3)	(5,3)	(185,2)	(1,31)	(147,2)	(164,1)	
L1D -129>	(128,12)	(0,67)	(1,20)	(134,5)	(32,8)	(135,26)	(-31,3)	(268,2)	(130,8)	(-23,2)	(-33,3)	(81,1)	(129,104)	(-1,1)	(14,1)	(-242,1)	
L1D -128>	(1,105)	(127,3)	(0,43)	(274,2)	(134,14)	(7,1)	(128,83)	(4,9)	(38,1)	(129,14)	(173,1)	(2,2)	(3,1)	(154,1)	(39,1)	(-2,1)	
L1D -127>	(127,85)	(133,28)	(2,78)	(128,18)	(152,1)	(1,18)	(132,26)	(131,1)	(0,58)	(-8,2)	(6,11)	(129,1)	(138,2)	(-49,1)	(126,7)	(-305,1)	
L1D -126>	(127,24)	(0,50)	(271,4)	(126,65)	(36,1)	(125,7)	(131,19)	(132,26)	(5,10)	(120,1)	(2,15)	(1,13)	(88,2)	(-2,2)	(350,2)	(164,1)	
L1D -125>	(125,40)	(5,64)	(0,26)	(1,10)	(13,3)	(441,0)	(4,12)	(32,1)	(123,1)	(131,14)	(222,0)	(-118,0)	(130,12)	(126,7)	(17,7)	(16,8)	
L1D -124>	(124,109)	(-118,6)	(2,2)	(-175,5)	(9,52)	(-82,4)	(92,2)	(0,74)	(194,2)	(-22,1)	(129,36)	(130,7)	(1,25)	(116,5)	(125,25)	(32,11)	
L1D -123>	(123,108)	(0,93)	(1,45)	(128,45)	(319,1)	(11,109)	(134,3)	(5,15)	(122,11)	(178,4)	(-1,3)	(322,6)	(124,37)	(149,6)	(-175,9)	(216,3)	
L1D -122>	(59,1)	(127,25)	(0,62)	(133,1)	(32,5)	(105,1)	(114,2)	(123,3)	(350,2)	(11,4)	(122,77)	(-22,2)	(1,15)	(-73,1)	(-1,5)	(-12,1)	
L1D -121>	(-23,9)	(0,89)	(121,110)	(122,21)	(-1,5)	(-15,6)	(-34,2)	(120,5)	(368,3)	(32,11)	(339,1)	(53,1)	(127,49)	(-3,2)	(1,27)	(126,57)	
L1D -120>	(1,25)	(120,70)	(0,65)	(121,14)	(126,29)	(-23,1)	(-1,3)	(-24,4)	(170,1)	(-124,2)	(305,2)	(125,21)	(119,9)	(225,1)	(32,1)	(20,1)	
L1D -119>	(-13,1)	(120,27)	(0,51)	(118,4)	(72,4)	(125,11)	(-32,1)	(-210,1)	(1,15)	(19,5)	(487,1)	(-20,1)	(18,5)	(119,122)	(86,1)	(-10,1)	
L1D -118>	(124,23)	(-20,5)	(1,30)	(118,87)	(0,121)	(9,1)	(10,3)	(32,9)	(250,6)	(229,2)	(-3,2)	(-61,16)	(119,24)	(170,2)	(210,8)	(247,8)	
L1D -117>	(117,53)	(0,69)	(32,7)	(118,9)	(35,1)	(1,24)	(-1,4)	(120,1)	(23,22)	(123,21)	(250,1)	(116,11)	(22,25)	(189,1)	(256,1)	(121,1)	
L1D -116>	(116,80)	(115,2)	(0,16)	(122,7)	(-66,1)	(1,9)	(-16,1)	(9,1)	(121,6)	(22,2)	(16,1)	(105,1)	(-136,1)	(117,7)	(24,1)	(-194,1)	
L1D -115>	(-1,4)	(114,10)	(1,11)	(0,60)	(120,37)	(115,116)	(116,59)	(-233,3)	(121,40)	(49,2)	(-22,4)	(146,2)	(158,2)	(151,2)	(67,1)	(8,1)	
L1D -114>	(1,28)	(0,77)	(114,111)	(115,17)	(314,2)	(119,26)	(113,13)	(120,25)	(-1,4)	(-240,2)	(203,2)	(271,2)	(-9,2)	(-246,1)	(32,4)	(145,1)	
L1D -113>	(118,55)	(113,107)	(0,90)	(114,56)	(112,19)	(32,10)	(108,5)	(-1,7)	(119,4)	(123,4)	(74,3)	(1,37)	(106,2)	(200,1)	(-96,1)	(-26,1)	
L1D -112>	(1,33)	(111,22)	(117,47)	(112,125)	(96,2)	(108,6)	(23,5)	(32,11)	(107,2)	(113,44)	(33,3)	(62,2)	(0,77)	(-63,2)	(123,2)	(-36,1)	
L1D -111>	(116,37)	(0,105)	(-39,4)	(372,39)	(65,54)	(104,8)	(1,64)	(110,22)	(111,97)	(134,5)	(112,26)	(165,7)	(-12,3)	(138,14)	(109,4)	(97,1)	
L1D -110>	(115,17)	(1,36)	(65,77)	(200,3)	(35,1)	(0,42)	(110,39)	(109,3)	(111,10)	(338,2)	(49,1)	(34,1)	(121,1)	(116,17)	(-111,1)	(32,5)	
L1D -109>	(0,28)	(1,35)	(96,1)	(65,84)	(104,1)	(109,22)	(115,9)	(110,5)	(108,7)	(92,1)	(114,9)	(98,1)	(-56,1)	(32,4)	(-63,1)	(35,2)	
L1D -108>	(0,77)	(1,27)	(65,115)	(-14,2)	(36,3)	(106,5)	(107,20)	(32,31)	(124,2)	(34,8)	(42,1)	(111,1)	(108,87)	(109,29)	(123,1)	(114,22)	
L1D -107>	(113,27)	(0,78)	(35,11)	(107,110)	(37,9)	(108,24)	(38,3)	(106,13)	(141,2)	(131,3)	(32,49)	(1,24)	(41,1)	(65,1)	(36,6)	(40,1)	
L1D -106>	(64,1)	(0,47)	(-100,2)	(32,47)	(106,108)	(112,13)	(107,28)	(34,4)	(35,5)	(42,2)	(36,7)	(65,3)	(61,2)	(33,6)	(-32,3)	(1,11)	
L1D -105>	(35,12)	(105,89)	(36,14)	(106,25)	(1,19)	(38,1)	(34,14)	(0,79)	(111,23)	(-92,10)	(32,88)	(104,10)	(-239,4)	(18,6)	(110,38)	(-1,3)	
L1D -104>	(104,50)	(0,59)	(105,18)	(-240,4)	(133,2)	(22,4)	(103,6)	(-44,1)	(109,34)	(1,20)	(32,76)	(110,31)	(65,5)	(-1,3)	(33,9)	(34,8)	
L1D -103>	(103,95)	(33,10)	(32,83)	(1,36)	(104,38)	(200,6)	(36,10)	(108,16)	(96,5)	(34,6)	(109,34)	(65,50)	(102,8)	(35,9)	(0,85)	(-81,1)	
L1D -102>	(0,71)	(1,30)	(32,86)	(102,63)	(38,1)	(36,6)	(33,12)	(2,3)	(-100,1)	(107,33)	(34,7)	(101,8)	(103,15)	(-61,1)	(35,3)	(-54,4)	
L1D -101>	(0,77)	(101,106)	(106,36)	(102,17)	(104,3)	(-97,14)	(32,83)	(3,3)	(-123,3)	(34,7)	(1,27)	(35,3)	(33,6)	(37,11)	(415,4)	(100,11)	
L1D -100>	(32,60)	(100,79)	(35,5)	(0,37)	(99,3)	(1,16)	(106,2)	(-2,2)	(160,5)	(26,1)	(36,6)	(105,17)	(343,1)	(13,3)	(121,1)	(101,20)	
L1D -99>	(33,2)	(0,79)	(-44,3)	(34,4)	(35,9)	(104,37)	(100,24)	(1,31)	(32,70)	(105,47)	(99,74)	(98,5)	(15,3)	(-10,1)	(239,1)	(133,1)	
L1D -98>	(99,27)	(1,34)	(0,71)	(32,57)	(-141,1)	(103,30)	(104,40)	(34,9)	(-1,4)	(98,95)	(33,5)	(97,14)	(390,3)	(-13,4)	(-179,2)	(-58,2)	
L1D -97>	(103,32)	(33,16)	(96,9)	(1,21)	(32,61)	(0,107)	(113,2)	(-80,2)	(97,106)	(-1,2)	(98,21)	(152,2)	(34,1)	(107,2)	(36,2)	(306,1)	
L1D -96>	(32,126)	(0,5)	(102,1)	(95,0)	(97,2)	(1,1)	(6,0)	(96,5)	(210,0)	(93,0)	(251,0)	(187,0)	(-103,1)	(121,0)	(37,0)	(130,0)	
L1D -95>	(101,15)	(-62,2)	(159,1)	(95,79)	(0,31)	(100,2)	(-51,2)	(1,14)	(32,23)	(-3,1)	(96,18)	(200,1)	(-104,1)	(94,2)	(-16,1)	(-301,1)	
L1D -94>	(0,116)	(95,28)	(32,18)	(117,2)	(-284,1)	(37,1)	(-74,1)	(99,65)	(-54,1)	(100,30)	(93,7)	(94,82)	(2,2)	(36,1)	(1,27)	(112,1)	
L1D -93>	(98,16)	(249,2)	(93,102)	(-111,24)	(-90,3)	(-12,2)	(92,11)	(321,1)	(-88,1)	(174,1)	(32,5)	(0,56)	(99,19)	(36,1)	(94,19)	(1,15)	
L1D -92>	(98,6)	(97,17)	(-62,1)	(-101,2)	(0,40)	(1,7)	(93,21)	(91,2)	(92,81)	(291,1)	(128,1)	(-59,1)	(-103,1)	(298,1)	(32,2)	(124,1)	
L1D -91>	(92,49)	(34,5)	(0,110)	(96,60)	(1,58)	(90,11)	(97,5)	(91,127)	(-20,1)	(-179,6)	(-118,17)	(-177,5)	(33,4)	(32,21)	(-30,6)	(-2,5)	
L1D -90>	(95,28)	(0,63)	(91,37)	(1,26)	(88,3)	(247,2)	(32,13)	(89,22)	(27,3)	(-2,2)	(-37,2)	(222,2)	(-1,2)	(58,1)	(35,1)	(90,110)	
L1D -89>	(0,92)	(-2,32)	(89,37)	(168,0)	(88,0)	(90,3)	(-1,11)	(1,4)	(94,0)	(32,0)	(-81,0)	(118,0)	(33,0)	(381,0)	(84,0)	(-77,0)	
L1D -88>	(-2,20)	(1,19)	(-8,0)	(94,10)	(93,7)	(-86,2)	(0,23)	(124,0)	(88,38)	(32,0)	(-75,0)	(34,1)	(87,10)	(-1,66)	(-6,1)	(89,16)	
L1D -87>	(137,4)	(-186,2)	(0,36)	(87,111)	(93,11)	(32,3)	(88,16)	(-168,1)	(98,3)	(1,23)	(-4,4)	(181,1)	(92,16)	(301,1)	(127,1)	(290,3)	
L1D -86>	(1,34)	(84,3)	(92,28)	(87,67)	(71,2)	(0,37)	(175,3)	(-275,4)	(86,94)	(-37,2)	(91,1)	(-72,1)	(381,1)	(455,1)	(85,13)	(51,1)	
L1D -85>	(0,22)	(85,83)	(33,1)	(1,23)	(84,4)	(-93,16)	(91,17)	(198,2)	(-38,1)	(-62,1)	(102,1)	(86,15)	(37,1)	(69,1)	(124,1)	(14,1)	
L1D -84>	(90,8)	(1,18)	(0,23)	(-131,4)	(210,1)	(99,1)	(-95,1)	(32,1)	(-330,1)	(-91,1)	(89,1)	(85,32)	(-49,1)	(75,2)	(84,116)	(-286,3)	
L1D -83>	(88,34)	(89,33)	(82,8)	(0,65)	(2,1)	(-125,1)	(32,1)	(84,14)	(1,27)	(51,1)	(83,120)	(65,1)	(-1,4)	(15,1)	(-82,27)	(81,1)	
L1D -82>	(87,26)	(82,105)	(166,16)	(-333,3)	(-85,25)	(53,1)	(-23,2)	(0,63)	(88,24)	(83,24)	(1,55)	(-246,2)	(81,6)	(-1,2)	(71,2)	(-92,2)	
L1D -81>	(-9,11)	(86,54)	(87,61)	(0,121)	(82,39)	(1,50)	(80,1)	(28,5)	(138,3)	(163,3)	(-278,3)	(-6,3)	(32,4)	(81,62)	(171,5)	(-1,8)	
L1D -80>	(0,117)	(119,6)	(81,22)	(178,3)	(-1,9)	(85,85)	(98,2)	(80,122)	(79,9)	(1,43)	(117,3)	(118,2)	(4,19)	(36,2)	(97,2)	(-72,1)	
L1D -79>	(78,7)	(0,36)	(4,3)	(-47,1)	(84,23)	(214,2)	(79,117)	(80,11)	(1,14)	(212,1)	(77,1)	(8,1)	(-1,1)	(106,1)	(67,1)	(19,1)	
L1D -78>	(83,39)	(0,76)	(36,2)	(-11,3)	(-81,2)	(-50,3)	(79,35)	(1,25)	(78,95)	(-19,2)	(39,3)	(-1,1)	(-32,1)	(77,5)	(124,1)	(49,1)	
L1D -77>	(0,91)	(1,31)	(75,2)	(83,43)	(82,48)	(35,6)	(-25,7)	(78,37)	(77,124)	(-2,4)	(-22,2)	(76,9)	(32,3)	(-8,1)	(243,1)	(-1,5)	
L1D -76>	(0,80)	(82,37)	(-2,6)	(-1,2)	(77,18)	(-57,2)	(32,1)	(61,3)	(-43,3)	(-8,1)	(48,1)	(1,22)	(-65,1)	(76,93)	(75,15)	(81,29)	
L1D -75>	(74,7)	(81,38)	(0,70)	(32,8)	(4,8)	(149,2)	(76,47)	(75,108)	(-55,2)	(1,33)	(2,1)	(374,1)	(-41,1)	(144,1)	(39,3)	(-92,1)	
L1D -74>	(80,46)	(0,94)	(75,24)	(73,18)	(8,1)	(4,20)	(32,12)	(1,26)	(-238,2)	(35,2)	(85,3)	(74,90)	(79,16)	(-143,2)	(-15,3)	(76,3)	
L1D -73>	(79,12)	(34,1)	(0,35)	(-40,1)	(32,12)	(63,1)	(78,2)	(1,10)	(62,1)	(195,1)	(39,2)	(73,65)	(36,4)	(72,5)	(84,2)	(74,15)	
L1D -72>	(78,36)	(58,2)	(77,37)	(0,93)	(1,39)	(32,17)	(73,22)	(-26,2)	(300,2)	(71,9)	(72,123)	(62,6)	(265,4)	(-52,2)	(37,1)	(83,1)	
L1D -71>	(-8,8)	(70,3)	(72,13)	(1,9)	(0,31)	(34,1)	(76,19)	(77,19)	(33,2)	(71,67)	(88,1)	(32,11)	(414,1)	(-2,7)	(356,1)	(39,3)	
L1D -70>	(0,43)	(1,21)	(7,2)	(-9,1)	(32,8)	(75,17)	(76,26)	(71,11)	(70,87)	(-179,1)	(59,1)	(34,1)	(9,1)	(162,1)	(-256,2)	(69,8)	
L1D -69>	(0,76)	(52,3)	(32,20)	(4,12)	(-124,4)	(69,101)	(1,18)	(74,45)	(-81,2)	(96,5)	(68,5)	(12,30)	(70,32)	(37,4)	(-183,1)	(36,2)	
L1D -68>	(1,30)	(73,24)	(4,4)	(237,1)	(3,2)	(69,11)	(0,43)	(79,1)	(32,15)	(84,1)	(68,79)	(10,1)	(36,3)	(63,1)	(-186,1)	(67,6)	
L1D -67>	(0,23)	(1,11)	(67,69)	(-7,1)	(72,15)	(66,6)	(62,1)	(-11,10)	(30,2)	(64,2)	(35,2)	(4,8)	(32,7)	(127,0)	(68,10)	(-30,0)	
L1D -66>	(66,70)	(72,25)	(-41,1)	(1,25)	(32,11)	(-2,12)	(-368,1)	(0,70)	(67,18)	(-233,1)	(71,17)	(-61,1)	(34,6)	(82,1)	(65,8)	(-8,10)	
L1D -65>	(0,61)	(-67,2)	(66,11)	(64,6)	(65,91)	(-252,4)	(1,19)	(-56,2)	(279,2)	(-2,22)	(-8,10)	(70,45)	(71,42)	(87,1)	(-74,3)	(32,12)	
L1D -64>	(2,108)	(32,112)	(1,45)	(66,40)	(19,13)	(0,73)	(64,73)	(65,16)	(63,11)	(-95,1)	(4,10)	(5,7)	(-2,21)	(70,21)	(-62,23)	(96,2)	
L1D -63>	(67,20)	(-61,9)	(5,3)	(1,88)	(3,92)	(4,17)	(-239,6)	(63,60)	(0,23)	(-3,2)	(2,8)	(64,7)	(68,3)	(69,29)	(18,9)	(91,2)	
L1D -62>	(3,82)	(70,1)	(62,9)	(-61,15)	(63,5)	(67,62)	(61,5)	(-2,1)	(0,7)	(-80,1)	(-100,1)	(1,2)	(18,3)	(-63,1)	(-249,0)	(239,0)	
L1D -61>	(70,73)	(0,21)	(5,41)	(61,105)	(6,69)	(62,8)	(17,23)	(60,7)	(1,8)	(67,13)	(11,17)	(81,11)	(68,9)	(22,1)	(18,2)	(66,7)	
L1D -60>	(1,31)	(73,14)	(-2,52)	(0,52)	(4,3)	(65,26)	(10,65)	(2,3)	(17,28)	(61,31)	(60,110)	(-8,12)	(11,24)	(18,2)	(66,14)	(22,1)	
L1D -59>	(0,52)	(65,30)	(81,7)	(70,20)	(1,13)	(12,82)	(16,30)	(64,16)	(17,1)	(21,4)	(-52,4)	(59,65)	(60,16)	(74,34)	(-2,27)	(10,22)	
L1D -58>	(63,73)	(73,3)	(58,106)	(0,108)	(4,48)	(-2,49)	(-122,2)	(16,98)	(-3,28)	(1,22)	(89,2)	(59,32)	(57,10)	(-1,9)	(12,21)	(31,1)	
L1D -57>	(6,1)	(-2,22)	(1,35)	(0,34)	(5,2)	(-3,5)	(15,64)	(57,70)	(-192,1)	(58,14)	(4,8)	(89,1)	(62,22)	(-6,1)	(3,2)	(56,5)	
L1D -56>	(15,73)	(61,16)	(4,7)	(55,6)	(0,54)	(57,21)	(2,2)	(56,70)	(-169,2)	(-69,1)	(1,20)	(-61,1)	(-2,18)	(-399,1)	(-3,13)	(-22,4)	
L1D -55>	(14,26)	(61,7)	(-2,20)	(0,21)	(-3,1)	(19,2)	(1,21)	(55,65)	(54,8)	(20,7)	(56,7)	(-22,3)	(4,1)	(60,9)	(119,0)	(-8,6)	
L1D -54>	(0,39)	(54,122)	(-8,10)	(-6,21)	(-3,5)	(43,2)	(55,20)	(14,45)	(53,7)	(-2,23)	(40,5)	(60,19)	(-25,3)	(1,16)	(59,18)	(-23,12)	
L1D -53>	(24,70)	(11,6)	(1,24)	(5,3)	(0,24)	(23,22)	(-13,1)	(52,6)	(87,54)	(13,29)	(-2,9)	(53,46)	(-9,1)	(54,15)	(59,12)	(88,12)	
L1D -52>	(13,26)	(4,10)	(52,67)	(0,26)	(51,4)	(-2,6)	(57,16)	(87,6)	(1,15)	(53,6)	(178,1)	(23,16)	(-35,3)	(3,5)	(-3,5)	(58,11)	
L1D -51>	(0,40)	(51,91)	(12,19)	(45,2)	(57,11)	(-23,1)	(26,4)	(52,29)	(-3,4)	(-2,7)	(-34,1)	(-11,6)	(50,5)	(-15,1)	(19,1)	(1,14)	
L1D -50>	(-10,86)	(-45,4)	(-11,84)	(82,4)	(1,14)	(-2,9)	(12,24)	(55,4)	(0,38)	(84,1)	(49,7)	(56,6)	(50,89)	(51,17)	(3,4)	(4,18)	
L1D -49>	(283,44)	(5,8)	(11,32)	(0,57)	(282,43)	(-2,39)	(-11,6)	(284,16)	(49,110)	(53,11)	(50,20)	(1,17)	(-10,97)	(40,1)	(54,20)	(55,14)	
L1D -48>	(1,27)	(11,112)	(-2,9)	(-290,6)	(113,3)	(0,75)	(47,13)	(-3,12)	(94,2)	(-1,2)	(54,22)	(-51,1)	(-5,1)	(49,15)	(53,22)	(48,111)	
L1D -47>	(1,15)	(4,8)	(47,56)	(-52,1)	(10,115)	(21,1)	(-3,3)	(0,17)	(65,8)	(95,1)	(48,3)	(87,3)	(-2,1)	(-1,1)	(53,1)	(52,7)	
L1D -46>	(0,3)	(46,37)	(54,1)	(10,12)	(-41,2)	(-293,1)	(1,80)	(206,1)	(-86,0)	(51,6)	(-3,1)	(47,1)	(65,17)	(-2,2)	(62,0)	(3,2)	
L1D -45>	(0,52)	(65,33)	(9,101)	(11,2)	(44,26)	(50,27)	(45,66)	(46,16)	(96,3)	(-295,21)	(-231,6)	(6,4)	(-37,9)	(-3,13)	(1,45)	(52,2)	
L1D -44>	(-2,21)	(45,10)	(-22,1)	(0,65)	(49,7)	(-30,4)	(9,51)	(43,26)	(44,63)	(-297,6)	(1,14)	(50,10)	(-40,3)	(5,1)	(-276,2)	(-8,13)	
L1D -43>	(52,0)	(0,3)	(44,67)	(8,11)	(36,0)	(-13,0)	(45,1)	(27,52)	(30,2)	(-20,0)	(43,3)	(-134,0)	(-3,3)	(-2,0)	(48,1)	(1,19)	
L1D -42>	(30,111)	(59,1)	(8,28)	(42,4)	(43,7)	(0,6)	(32,1)	(13,0)	(264,0)	(1,18)	(11,4)	(-17,0)	(40,0)	(3,14)	(-3,3)	(48,1)	
L1D -41>	(7,125)	(42,43)	(4,25)	(-46,40)	(0,27)	(40,4)	(-3,21)	(88,8)	(46,8)	(41,46)	(8,1)	(3,3)	(47,13)	(1,8)	(34,5)	(32,3)	
L1D -40>	(7,75)	(40,13)	(33,1)	(8,1)	(34,3)	(38,1)	(46,6)	(1,2)	(310,1)	(0,14)	(32,3)	(-3,8)	(39,3)	(31,0)	(41,5)	(-1,0)	
L1D -39>	(-4,3)	(6,39)	(1,67)	(39,37)	(33,1)	(41,2)	(-2,25)	(10,3)	(40,1)	(0,5)	(-3,1)	(9,27)	(-22,1)	(45,1)	(-21,3)	(38,1)	
L1D -38>	(43,6)	(1,5)	(-3,13)	(6,72)	(-148,3)	(-2,1)	(38,81)	(-8,6)	(39,8)	(49,1)	(37,4)	(42,3)	(0,9)	(34,5)	(32,3)	(44,2)	
L1D -37>	(0,18)	(5,85)	(42,5)	(-3,16)	(43,4)	(36,3)	(35,4)	(37,80)	(1,1)	(-1,9)	(31,2)	(-4,2)	(38,36)	(6,6)	(-2,1)	(-43,1)	
L1D -36>	(0,10)	(5,90)	(1,2)	(-17,1)	(36,56)	(-3,6)	(49,108)	(11,1)	(65,5)	(41,9)	(37,6)	(35,4)	(39,3)	(4,1)	(32,4)	(7,1)	
L1D -35>	(4,17)	(29,2)	(35,44)	(36,53)	(-171,1)	(0,16)	(39,2)	(40,6)	(42,1)	(8,36)	(33,2)	(5,66)	(6,1)	(-3,6)	(26,1)	(1,1)	
L1D -34>	(31,106)	(-8,1)	(1,1)	(25,1)	(18,1)	(13,0)	(36,1)	(4,9)	(-3,0)	(34,4)	(5,2)	(33,0)	(0,12)	(35,21)	(32,1)	(38,0)	
L1D -33>	(4,1)	(3,4)	(10,71)	(-19,1)	(0,6)	(36,2)	(1,2)	(33,11)	(-8,1)	(34,29)	(-6,33)	(32,3)	(-3,2)	(35,0)	(-2,1)	(8,0)	
L1D -32>	(32,29)	(0,12)	(35,8)	(-3,1)	(-2,8)	(-8,1)	(29,1)	(6,8)	(33,79)	(-34,1)	(42,1)	(38,5)	(1,2)	(34,2)	(31,7)	(37,4)	
L1D -31>	(38,2)	(-13,6)	(-4,9)	(31,84)	(1,7)	(-7,19)	(37,5)	(0,19)	(33,4)	(-50,2)	(43,1)	(-2,4)	(32,74)	(30,7)	(10,89)	(-3,8)	
L1D -30>	(0,28)	(4,22)	(31,46)	(24,127)	(-9,3)	(32,8)	(35,4)	(1,14)	(29,6)	(-4,6)	(-219,8)	(30,92)	(36,9)	(383,1)	(3,3)	(28,1)	
L1D -29>	(30,115)	(0,74)	(-10,23)	(29,122)	(308,2)	(-7,15)	(17,22)	(-14,4)	(1,22)	(28,13)	(32,15)	(31,6)	(35,10)	(112,1)	(23,1)	(-1,2)	
L1D -28>	(30,2)	(-18,95)	(28,6)	(31,1)	(27,1)	(-2,1)	(29,2)	(-13,1)	(35,3)	(-7,0)	(13,25)	(-10,3)	(-9,26)	(67,0)	(32,0)	(0,5)	
L1D -27>	(-25,2)	(10,72)	(27,26)	(-2,4)	(1,120)	(43,1)	(28,6)	(0,8)	(32,4)	(-35,1)	(-8,15)	(-24,1)	(243,1)	(26,12)	(-30,1)	(-9,1)	
L1D -26>	(10,69)	(30,3)	(49,0)	(3,46)	(27,3)	(0,7)	(13,34)	(12,11)	(19,4)	(25,2)	(26,15)	(-9,1)	(18,4)	(1,2)	(31,1)	(-10,0)	
L1D -25>	(34,1)	(0,22)	(4,6)	(10,27)	(-7,7)	(26,7)	(24,2)	(2,1)	(-2,3)	(1,7)	(25,96)	(33,1)	(18,4)	(-1,1)	(29,1)	(30,2)	
L1D -24>	(10,110)	(3,1)	(-270,1)	(18,3)	(29,4)	(25,18)	(24,72)	(1,5)	(49,4)	(-18,40)	(-7,76)	(115,1)	(0,18)	(32,2)	(-11,15)	(4,1)	
L1D -23>	(8,1)	(-16,11)	(18,33)	(-11,31)	(24,2)	(25,2)	(-12,8)	(-20,1)	(16,103)	(9,1)	(17,1)	(-2,1)	(39,2)	(7,1)	(0,3)	(23,13)	
L1D -22>	(6,75)	(-11,6)	(33,1)	(-30,0)	(27,0)	(-41,0)	(21,1)	(25,0)	(-118,0)	(-12,1)	(-8,4)	(22,1)	(0,1)	(-2,0)	(3,0)	(31,0)	
L1D -21>	(5,91)	(0,113)	(414,8)	(21,123)	(-2,13)	(13,46)	(26,1)	(-8,17)	(1,9)	(-25,5)	(-9,3)	(20,35)	(-1,25)	(22,12)	(-41,4)	(-10,17)	
L1D -20>	(158,1)	(-78,1)	(43,48)	(33,27)	(1,3)	(10,9)	(12,92)	(0,15)	(-1,6)	(-8,1)	(20,23)	(-10,2)	(21,2)	(-4,2)	(8,1)	(-6,7)	
L1D -19>	(-7,7)	(2,117)	(-14,3)	(0,10)	(5,28)	(4,13)	(34,95)	(11,4)	(19,15)	(7,15)	(21,7)	(-1,25)	(22,24)	(1,3)	(-10,1)	(20,15)	
L1D -18>	(1,101)	(-1,2)	(25,0)	(19,0)	(-11,0)	(24,1)	(18,4)	(-15,0)	(-10,0)	(51,0)	(143,0)	(3,0)	(-9,1)	(-296,0)	(47,0)	(0,2)	
L1D -17>	(9,60)	(1,18)	(-15,2)	(-1,6)	(2,22)	(-2,5)	(40,29)	(16,13)	(-48,3)	(19,5)	(-16,5)	(44,1)	(17,122)	(18,14)	(0,47)	(-153,1)	
L1D -16>	(-4,112)	(44,8)	(-8,9)	(16,10)	(15,8)	(0,3)	(2,4)	(-1,1)	(-36,1)	(1,3)	(-2,7)	(18,2)	(-5,9)	(32,2)	(-41,1)	(17,4)	
L1D -15>	(15,22)	(-15,50)	(17,1)	(-4,92)	(16,9)	(10,3)	(30,13)	(14,5)	(0,11)	(2,7)	(44,45)	(1,86)	(13,2)	(6,2)	(-1,42)	(-5,42)	
L1D -14>	(14,124)	(-1,3)	(-6,61)	(-3,3)	(0,26)	(12,2)	(8,8)	(-10,16)	(6,4)	(39,4)	(16,51)	(15,27)	(114,1)	(1,9)	(9,3)	(13,5)	
L1D -13>	(-13,34)	(13,44)	(15,7)	(19,30)	(0,24)	(-4,14)	(14,17)	(1,4)	(2,9)	(-20,4)	(-25,3)	(-10,86)	(12,57)	(10,1)	(25,10)	(28,7)	
L1D -12>	(9,3)	(10,2)	(11,5)	(12,60)	(33,1)	(13,33)	(8,8)	(3,7)	(-1,20)	(-11,83)	(15,19)	(-5,10)	(-20,12)	(-3,4)	(1,10)	(0,32)	
L1D -11>	(1,19)	(-5,23)	(15,12)	(-6,20)	(0,32)	(-193,3)	(11,56)	(-35,1)	(12,16)	(18,96)	(-8,5)	(10,4)	(-1,45)	(20,44)	(8,52)	(-3,4)	
L1D -10>	(8,19)	(10,63)	(2,24)	(16,126)	(4,14)	(28,1)	(39,5)	(-3,13)	(6,5)	(11,22)	(1,15)	(-1,9)	(3,6)	(9,34)	(18,41)	(0,18)	
L1D -9>	(-3,66)	(-44,0)	(1,18)	(9,83)	(-1,13)	(-14,1)	(12,30)	(29,2)	(0,6)	(3,3)	(39,1)	(11,1)	(10,16)	(2,3)	(8,1)	(-4,1)	
L1D -8>	(16,6)	(2,6)	(9,55)	(-6,5)	(13,11)	(1,15)	(0,23)	(3,6)	(10,82)	(8,56)	(12,2)	(-1,5)	(15,30)	(11,5)	(7,24)	(-15,1)	
L1D -7>	(-3,6)	(-1,0)	(-8,13)	(20,68)	(9,71)	(0,19)	(-16,3)	(10,19)	(1,40)	(15,18)	(4,4)	(7,23)	(6,3)	(-4,4)	(26,7)	(17,14)	
L1D -6>	(1,20)	(6,24)	(-3,79)	(0,49)	(10,29)	(7,20)	(-5,48)	(15,70)	(3,96)	(-4,73)	(-11,80)	(5,51)	(11,1)	(-6,81)	(4,19)	(9,45)	
L1D -5>	(5,36)	(-11,20)	(3,88)	(2,55)	(21,45)	(10,20)	(-3,47)	(-2,19)	(1,8)	(13,62)	(-1,19)	(7,7)	(4,17)	(0,25)	(-8,1)	(26,13)	
L1D -4>	(-1,71)	(-8,1)	(8,3)	(34,9)	(0,6)	(4,21)	(12,18)	(-24,6)	(9,3)	(1,11)	(-3,6)	(-2,11)	(5,8)	(22,8)	(2,40)	(-7,8)	
L1D -3>	(3,75)	(1,30)	(-3,3)	(4,7)	(-89,2)	(8,6)	(0,62)	(-2,47)	(-11,11)	(9,7)	(12,83)	(2,25)	(6,6)	(-8,1)	(-4,4)	(-1,37)	
L1D -2>	(2,97)	(1,94)	(91,17)	(32,12)	(8,4)	(-2,19)	(-101,5)	(-1,42)	(0,90)	(-5,9)	(4,7)	(-3,1)	(3,9)	(-20,3)	(-6,6)	(-4,7)	
L1D -1>	(0,60)	(2,37)	(1,69)	(21,8)	(5,16)	(-1,14)	(-24,13)	(9,2)	(12,1)	(8,10)	(13,13)	(11,2)	(4,22)	(-7,29)	(-193,1)	(10,2)	
L1D 0>	(0,120)	(14,1)	(1,21)	(-14,2)	(-5,3)	(-7,2)	(107,1)	(-162,1)	(5,1)	(-2,1)	(-42,1)	(-1,26)	(2,4)	(-168,1)	(8,1)	(-54,2)	
L1D 1>	(4,3)	(0,39)	(-15,5)	(-6,1)	(1,90)	(2,17)	(6,3)	(-2,4)	(20,9)	(5,2)	(3,2)	(49,14)	(-1,49)	(-19,10)	(-31,1)	(-4,1)	
L1D 2>	(2,67)	(-1,77)	(3,18)	(1,99)	(-61,5)	(-103,5)	(0,28)	(4,5)	(-3,16)	(-5,52)	(-2,36)	(-4,43)	(-6,16)	(-10,11)	(-15,12)	(-19,1)	
L1D 3>	(-1,38)	(47,11)	(1,11)	(9,14)	(-8,1)	(16,13)	(39,10)	(-3,46)	(46,10)	(2,66)	(-6,13)	(0,21)	(-2,60)	(4,7)	(5,17)	(-4,5)	
L1D 4>	(1,75)	(4,8)	(-1,9)	(-4,15)	(-5,4)	(0,14)	(-54,2)	(3,2)	(10,7)	(-3,8)	(-10,5)	(-11,5)	(9,4)	(-7,16)	(31,5)	(5,3)	
L1D 5>	(32,79)	(20,56)	(6,84)	(-4,86)	(-1,67)	(-5,72)	(0,95)	(34,9)	(1,42)	(-38,1)	(33,79)	(8,13)	(24,93)	(5,4)	(7,8)	(-3,34)	
L1D 6>	(8,34)	(-13,4)	(45,1)	(1,15)	(11,8)	(-12,9)	(5,14)	(34,23)	(9,14)	(-3,7)	(-5,113)	(0,21)	(16,23)	(-6,33)	(33,35)	(-11,8)	
L1D 7>	(-6,18)	(5,7)	(-5,2)	(-7,66)	(-13,11)	(-1,52)	(34,50)	(35,47)	(-3,15)	(-9,7)	(0,94)	(1,33)	(-23,65)	(24,8)	(-4,6)	(-2,9)	
L1D 8>	(-7,14)	(13,20)	(-4,11)	(-1,98)	(35,5)	(1,20)	(5,4)	(-6,7)	(-8,17)	(-5,2)	(2,13)	(7,2)	(-9,6)	(28,1)	(0,29)	(10,23)	
L1D 9>	(-5,17)	(-4,9)	(-11,1)	(1,2)	(-14,2)	(14,3)	(-8,26)	(6,16)	(-1,26)	(-6,28)	(-7,6)	(-12,7)	(-9,103)	(-2,59)	(0,5)	(20,11)	
L1D 10>	(8,11)	(2,29)	(-7,18)	(18,31)	(7,19)	(0,10)	(-10,10)	(-6,20)	(-5,17)	(-16,73)	(3,10)	(-22,25)	(-12,28)	(20,15)	(-3,1)	(-4,21)	
L1D 11>	(-13,14)	(23,25)	(-4,1)	(-5,13)	(0,58)	(-11,64)	(-2,17)	(-10,14)	(154,19)	(3,47)	(-12,11)	(1,5)	(-1,5)	(7,9)	(-3,25)	(-6,24)	
L1D 12>	(-27,77)	(13,45)	(-13,51)	(-9,121)	(0,5)	(-6,27)	(164,1)	(39,2)	(23,4)	(-5,4)	(10,40)	(-3,13)	(2,2)	(-2,8)	(-12,13)	(40,2)	
L1D 13>	(-8,1)	(-13,55)	(-7,8)	(-33,50)	(-26,25)	(-23,42)	(-6,8)	(40,2)	(-3,2)	(6,3)	(-10,6)	(0,5)	(2,2)	(13,79)	(-14,11)	(-12,3)	
L1D 14>	(-14,105)	(-17,4)	(-28,1)	(-13,17)	(0,41)	(-15,6)	(41,21)	(-10,2)	(-3,13)	(-4,3)	(-2,8)	(15,63)	(42,18)	(-11,16)	(1,7)	(-1,6)	
L1D 15>	(-15,32)	(-37,13)	(-7,13)	(0,26)	(-8,43)	(-26,127)	(-11,38)	(-19,11)	(42,21)	(2,88)	(43,13)	(-28,77)	(1,1)	(-14,79)	(-12,38)	(5,17)	
L1D 16>	(-20,50)	(-8,75)	(-21,14)	(0,7)	(-19,47)	(-17,2)	(-16,16)	(23,79)	(-3,1)	(12,2)	(15,2)	(43,1)	(1,2)	(-1,1)	(-6,2)	(-22,39)	
L1D 17>	(18,14)	(-11,7)	(-6,105)	(-1,11)	(-24,15)	(-22,1)	(23,24)	(3,17)	(-15,15)	(-17,74)	(0,51)	(1,16)	(44,11)	(-16,22)	(65,6)	(-14,21)	
L1D 18>	(-15,97)	(-6,82)	(65,1)	(-3,49)	(18,52)	(-13,9)	(2,4)	(-18,11)	(0,6)	(-36,5)	(-22,4)	(-11,59)	(1,4)	(-28,50)	(3,2)	(-10,7)	
L1D 19>	(0,24)	(-19,36)	(-17,45)	(5,3)	(-18,9)	(-49,2)	(-359,4)	(-20,87)	(-1,2)	(15,48)	(-232,2)	(1,14)	(-26,3)	(-16,3)	(26,4)	(-8,12)	
L1D 20>	(-231,1)	(65,3)	(-21,2)	(-26,34)	(-43,105)	(1,1)	(-20,3)	(-16,6)	(-4,20)	(-7,124)	(6,7)	(-22,2)	(-15,0)	(0,3)	(-28,6)	(-5,21)	
L1D 21>	(-275,0)	(-21,2)	(-16,15)	(-22,83)	(-12,0)	(-20,0)	(0,5)	(1,2)	(-5,0)	(-6,2)	(15,0)	(5,2)	(-19,0)	(-26,0)	(3,7)	(155,2)	
L1D 22>	(-108,2)	(1,5)	(-67,1)	(12,88)	(3,17)	(20,6)	(-239,1)	(-3,1)	(-21,6)	(5,2)	(0,28)	(-238,3)	(-237,7)	(-22,22)	(-6,8)	(-16,3)	
L1D 23>	(-46,64)	(-23,34)	(-1,9)	(-110,6)	(1,7)	(-4,4)	(-22,2)	(-45,2)	(19,2)	(-366,2)	(-28,108)	(-239,5)	(18,7)	(0,13)	(8,1)	(-238,3)	
L1D 24>	(2,1)	(-28,1)	(65,1)	(-2,2)	(-4,3)	(-1,126)	(191,1)	(-27,1)	(17,1)	(-240,1)	(1,3)	(-47,13)	(-23,11)	(-24,51)	(-25,9)	(0,12)	
L1D 25>	(-1,7)	(-28,1)	(-26,9)	(-51,5)	(-21,24)	(1,19)	(-7,8)	(0,40)	(-14,33)	(-25,125)	(-27,5)	(-53,5)	(-22,12)	(-57,4)	(-37,4)	(-24,25)	
L1D 26>	(-9,68)	(0,8)	(-1,1)	(-25,6)	(-29,2)	(2,1)	(-26,15)	(-40,1)	(-53,1)	(7,1)	(5,7)	(22,1)	(1,4)	(6,3)	(-30,1)	(65,1)	
L1D 27>	(-30,0)	(-27,25)	(-5,2)	(1,16)	(0,11)	(-9,78)	(-2,0)	(-31,1)	(-6,4)	(-89,0)	(-1,1)	(-40,1)	(-10,0)	(-28,0)	(-22,0)	(-26,5)	
L1D 28>	(-1,40)	(-28,127)	(-27,62)	(1,32)	(0,91)	(-6,23)	(-29,25)	(-131,5)	(13,28)	(-36,4)	(-15,49)	(-30,14)	(-34,15)	(-4,4)	(470,1)	(65,23)	
L1D 29>	(-7,55)	(-19,3)	(6,2)	(62,1)	(-29,85)	(0,65)	(-87,1)	(-53,3)	(-1,14)	(-24,1)	(1,18)	(-28,18)	(-31,15)	(-30,7)	(4,4)	(-2,5)	
L1D 30>	(-20,3)	(13,64)	(0,12)	(1,4)	(-29,1)	(-1,1)	(-27,6)	(6,1)	(-30,6)	(-32,6)	(-31,1)	(-33,2)	(-5,1)	(-4,1)	(-36,0)	(-91,0)	
L1D 31>	(-31,89)	(-191,1)	(-30,43)	(-1,5)	(-55,1)	(1,7)	(0,24)	(-6,7)	(-34,4)	(-108,1)	(-35,62)	(-33,0)	(7,4)	(-86,0)	(-27,4)	(-7,9)	
L1D 32>	(0,32)	(-40,3)	(32,127)	(56,1)	(-68,1)	(-32,8)	(38,3)	(85,1)	(36,2)	(-96,55)	(-31,7)	(-29,4)	(-72,1)	(-37,7)	(33,3)	(-34,3)	
L1D 33>	(-39,27)	(0,124)	(-23,16)	(-66,1)	(-38,24)	(32,5)	(1,3)	(-32,1)	(21,2)	(40,1)	(-36,6)	(-101,1)	(-41,1)	(-100,1)	(-73,1)	(-33,29)	
L1D 34>	(-43,1)	(-36,48)	(0,66)	(-19,1)	(-29,3)	(-40,9)	(-66,1)	(-27,31)	(-34,16)	(-7,1)	(-41,10)	(32,2)	(7,0)	(1,7)	(-2,2)	(-35,26)	
L1D 35>	(-38,9)	(0,92)	(-42,31)	(-1,2)	(-35,65)	(-43,9)	(33,2)	(32,8)	(25,2)	(52,1)	(-34,9)	(1,6)	(-2,3)	(-65,1)	(34,1)	(-72,1)	
L1D 36>	(0,106)	(1,11)	(-36,84)	(-35,29)	(-32,10)	(-39,17)	(5,3)	(-37,5)	(32,12)	(24,6)	(-45,5)	(6,4)	(-33,2)	(-1,8)	(-72,1)	(-18,2)	
L1D 37>	(0,38)	(32,6)	(-46,4)	(-222,1)	(-95,1)	(-37,65)	(1,3)	(-62,3)	(5,2)	(-47,6)	(-2,2)	(-42,6)	(-30,1)	(-36,6)	(-38,1)	(-1,2)	
L1D 38>	(0,47)	(-33,1)	(-39,84)	(-4,4)	(59,1)	(32,6)	(-42,27)	(-17,1)	(-38,97)	(-49,4)	(-2,5)	(-37,22)	(1,10)	(-6,3)	(-48,8)	(-1,5)	
L1D 39>	(0,70)	(-28,8)	(-4,1)	(-46,3)	(-38,7)	(36,0)	(37,0)	(-39,18)	(1,2)	(-7,3)	(-42,2)	(-6,1)	(3,1)	(-50,3)	(2,2)	(-51,2)	
L1D 40>	(32,9)	(-4,16)	(-39,13)	(-43,11)	(15,1)	(-56,7)	(0,115)	(-40,40)	(-53,16)	(-7,10)	(-28,40)	(-52,7)	(-197,2)	(1,22)	(6,5)	(-60,2)	
L1D 41>	(0,96)	(-42,3)	(1,15)	(-54,12)	(-55,12)	(6,4)	(-41,37)	(-8,8)	(-2,3)	(36,1)	(-40,7)	(-1,5)	(-6,1)	(-38,8)	(-43,1)	(-7,1)	
L1D 42>	(-10,11)	(0,123)	(-57,17)	(-59,6)	(-43,3)	(1,44)	(-3,9)	(-42,44)	(-1,17)	(-56,16)	(-41,24)	(32,1)	(-38,6)	(-39,4)	(-7,7)	(-28,21)	
L1D 43>	(-13,11)	(157,3)	(-32,2)	(0,66)	(-28,75)	(-40,1)	(-42,23)	(-43,12)	(-64,1)	(-59,6)	(1,8)	(-12,112)	(154,1)	(-58,7)	(-4,3)	(-46,28)	
L1D 44>	(-42,112)	(-44,1)	(0,9)	(-23,3)	(-60,0)	(-10,0)	(-22,6)	(8,1)	(-76,0)	(-34,0)	(-24,0)	(-15,0)	(1,3)	(-41,0)	(-5,0)	(-12,2)	
L1D 45>	(-22,9)	(-45,57)	(-44,11)	(0,74)	(-63,6)	(-54,2)	(1,18)	(-23,35)	(-1,31)	(-42,5)	(5,6)	(-62,5)	(-46,2)	(-35,1)	(-34,5)	(-31,3)	
L1D 46>	(-46,84)	(-49,82)	(0,18)	(-31,8)	(-23,23)	(-59,12)	(1,9)	(-154,1)	(-64,2)	(-78,1)	(-32,1)	(-44,2)	(7,1)	(-45,1)	(-60,8)	(5,4)	
L1D 47>	(-50,62)	(-47,70)	(-7,1)	(-61,7)	(-48,3)	(0,24)	(-24,4)	(1,4)	(-46,1)	(-336,1)	(3,1)	(-43,2)	(5,3)	(-23,1)	(-110,1)	(-60,7)	
L1D 48>	(5,13)	(0,91)	(-48,51)	(-47,13)	(28,2)	(6,9)	(1,20)	(-129,1)	(-37,2)	(157,3)	(3,4)	(-2,3)	(4,1)	(-20,1)	(-1,3)	(-50,1)	
L1D 49>	(-34,103)	(46,1)	(-47,23)	(-37,0)	(-41,0)	(-113,0)	(-85,0)	(-67,0)	(-49,1)	(0,2)	(1,0)	(-142,0)	(-48,0)	(-127,0)	(-31,0)	(-233,0)	
L1D 50>	(6,3)	(-50,76)	(-84,4)	(0,35)	(-47,3)	(-80,2)	(-49,11)	(-127,2)	(-5,1)	(-85,1)	(-54,1)	(-112,2)	(-191,1)	(-1,8)	(1,12)	(-53,6)	
L1D 51>	(-50,17)	(-26,4)	(6,10)	(0,54)	(-51,122)	(-55,10)	(-16,1)	(-52,5)	(-54,1)	(-48,5)	(1,29)	(-2,4)	(-1,13)	(-174,1)	(-85,1)	(34,1)	
L1D 52>	(-59,3)	(-12,7)	(0,68)	(-52,127)	(-53,10)	(-49,11)	(-1,10)	(-2,4)	(6,15)	(-17,3)	(1,28)	(-9,1)	(-51,44)	(-54,1)	(-27,4)	(5,1)	
L1D 53>	(0,41)	(1,43)	(6,15)	(-1,6)	(-27,2)	(-66,1)	(-52,11)	(-49,3)	(-54,4)	(-225,1)	(-61,2)	(-42,6)	(-53,81)	(-220,2)	(-64,1)	(-60,1)	
L1D 54>	(-53,14)	(1,73)	(-14,4)	(5,3)	(-54,83)	(0,30)	(-139,1)	(-55,2)	(-96,1)	(-11,2)	(-165,1)	(6,5)	(-51,2)	(158,1)	(-56,1)	(-1,9)	
L1D 55>	(-14,1)	(-55,73)	(6,2)	(0,26)	(-54,15)	(60,1)	(5,5)	(-56,2)	(-1,6)	(-2,1)	(-85,1)	(-88,1)	(-69,1)	(-58,1)	(-15,1)	(1,10)	
L1D 56>	(5,10)	(-113,2)	(-56,81)	(-232,2)	(0,49)	(1,19)	(-34,1)	(-55,28)	(-88,1)	(-104,1)	(-166,2)	(-1,2)	(-117,1)	(-95,2)	(-60,1)	(-53,6)	
L1D 57>	(0,87)	(-57,107)	(5,16)	(-58,2)	(-16,1)	(-92,3)	(-56,32)	(1,31)	(-237,1)	(-11,3)	(-75,1)	(-54,9)	(-1,15)	(7,1)	(2,1)	(-41,3)	
L1D 58>	(-59,11)	(-55,7)	(0,64)	(-58,100)	(1,26)	(5,18)	(-57,21)	(-1,22)	(-169,2)	(77,1)	(-125,1)	(6,4)	(-60,1)	(229,1)	(-99,1)	(-44,1)	
L1D 59>	(-59,88)	(-56,5)	(6,12)	(-12,3)	(0,63)	(-58,14)	(-10,1)	(5,7)	(-60,4)	(-82,1)	(-62,1)	(1,13)	(-1,3)	(-63,1)	(-72,2)	(25,1)	
L1D 60>	(5,18)	(0,43)	(1,15)	(-176,2)	(-61,6)	(-57,4)	(6,12)	(-109,1)	(-129,1)	(-59,28)	(-1,7)	(-29,1)	(-175,1)	(-32,1)	(-60,116)	(-87,3)	
L1D 61>	(-61,105)	(5,4)	(6,3)	(0,29)	(-62,4)	(1,11)	(96,1)	(-60,23)	(-91,1)	(-1,13)	(-110,1)	(-94,1)	(-79,1)	(88,1)	(-144,1)	(-59,1)	
L1D 62>	(-66,3)	(-59,5)	(6,5)	(91,1)	(0,69)	(-62,96)	(-61,46)	(-1,11)	(-69,4)	(-11,2)	(72,2)	(-121,2)	(-43,5)	(-33,3)	(1,38)	(-63,6)	
L1D 63>	(-62,19)	(-63,89)	(-61,2)	(1,9)	(6,13)	(65,5)	(-64,5)	(-60,2)	(240,1)	(-1,5)	(-68,1)	(0,37)	(-86,1)	(-96,2)	(5,1)	(-59,3)	
L1D 64>	(-60,6)	(170,1)	(-61,1)	(-63,57)	(1,83)	(4,2)	(65,53)	(64,14)	(0,22)	(-64,6)	(-146,1)	(-127,13)	(6,5)	(104,1)	(94,1)	(151,1)	
L1D 65>	(0,103)	(-128,7)	(-123,2)	(-65,6)	(-64,3)	(1,4)	(65,1)	(-62,13)	(-127,1)	(-70,1)	(2,3)	(436,1)	(-63,4)	(-22,1)	(-59,3)	(-11,1)	
L1D 66>	(-66,83)	(-60,13)	(6,7)	(-62,9)	(5,14)	(-67,4)	(2,7)	(-126,8)	(-1,10)	(0,47)	(-10,1)	(-2,2)	(-63,3)	(-65,15)	(-59,2)	(1,19)	
L1D 67>	(5,105)	(4,18)	(-66,17)	(-59,65)	(-124,12)	(0,54)	(1,14)	(-67,88)	(17,30)	(-47,19)	(-123,28)	(-155,2)	(-16,1)	(-106,1)	(14,4)	(-1,7)	
L1D 68>	(0,83)	(-215,5)	(5,11)	(-1,8)	(-68,103)	(1,34)	(9,25)	(-54,2)	(-119,6)	(-67,24)	(-177,2)	(-23,1)	(94,1)	(-167,1)	(44,1)	(-55,3)	
[...]
L1D 369>	(0,25)	(-1,2)	(-369,69)	(-368,13)	(12,2)	(-305,2)	(54,1)	(13,1)	(-27,1)	(-180,1)	(1,11)	(-247,1)	(-405,1)	(-173,1)	(-95,1)	(14,1)	
L1D 370>	(-370,5)	(-89,1)	(-367,1)	(-426,1)	(0,19)	(-145,1)	(-245,1)	(-205,1)	(-369,9)	(-101,1)	(8,1)	(-65,2)	(1,9)	(-186,1)	(-327,1)	(-95,1)	
L1D 371>	(-370,46)	(0,25)	(-383,2)	(-31,2)	(-1,4)	(1,9)	(-391,1)	(-435,1)	(-314,1)	(-218,1)	(86,1)	(34,1)	(-307,1)	(45,1)	(-261,1)	(-371,13)	
L1D 372>	(-82,39)	(-438,4)	(-371,4)	(0,21)	(-372,25)	(-373,2)	(-1,5)	(-360,3)	(-51,2)	(1,6)	(-262,1)	(8,1)	(-325,1)	(-436,1)	(-257,1)	(-318,1)	
L1D 373>	(-27,1)	(13,2)	(-290,1)	(122,1)	(-373,13)	(-372,7)	(-1,4)	(1,11)	(-348,1)	(0,20)	(-34,1)	(-258,2)	(-84,1)	(-269,1)	(-107,1)	(-111,1)	
L1D 374>	(-374,7)	(-358,4)	(13,2)	(0,22)	(-176,1)	(1,11)	(-365,3)	(-233,1)	(-267,1)	(-1,6)	(-141,1)	(-4,1)	(-298,2)	(-214,2)	(-266,1)	(-423,1)	
L1D 375>	(-1,5)	(1,12)	(0,17)	(-375,44)	(-374,17)	(-416,2)	(-63,1)	(-167,1)	(-249,1)	(-268,1)	(21,1)	(-312,2)	(-232,1)	(-27,1)	(-46,1)	(-373,1)	
L1D 376>	(1,12)	(0,24)	(-376,16)	(-153,3)	(-375,10)	(13,1)	(-241,2)	(-172,1)	(-274,1)	(-60,1)	(-208,1)	(-1,4)	(-290,1)	(-311,1)	(-329,1)	(-2,1)	
L1D 377>	(-378,3)	(1,16)	(0,31)	(12,2)	(-95,1)	(-327,1)	(-377,107)	(-404,1)	(27,1)	(-376,22)	(117,2)	(-287,1)	(52,1)	(-2,5)	(-1,14)	(-379,1)	
L1D 378>	(-378,11)	(0,19)	(91,1)	(-2,2)	(3,1)	(-4,2)	(4,1)	(1,15)	(-241,1)	(-377,8)	(-1,3)	(-286,1)	(-205,1)	(-182,1)	(-140,1)	(-175,1)	
L1D 379>	(-378,6)	(-311,1)	(0,21)	(-124,1)	(-379,20)	(-1,2)	(-387,1)	(-386,1)	(8,1)	(-127,1)	(1,8)	(-319,2)	(-478,1)	(-39,1)	(-435,1)	(5,1)	
L1D 380>	(0,36)	(-316,1)	(1,12)	(-13,1)	(-380,20)	(-1,7)	(15,1)	(-30,2)	(-425,1)	(-6,1)	(-205,2)	(-180,1)	(-114,1)	(68,1)	(-306,1)	(-403,1)	
L1D 381>	(-5,44)	(1,8)	(-358,2)	(-381,29)	(-380,11)	(-43,2)	(-154,1)	(0,22)	(-175,1)	(-14,2)	(-13,1)	(-1,8)	(-51,1)	(7,1)	(-204,1)	(-384,1)	
L1D 382>	(-174,1)	(-382,5)	(1,13)	(0,21)	(-5,1)	(-449,1)	(-386,1)	(-83,1)	(14,1)	(-381,8)	(-484,1)	(-71,1)	(-379,1)	(-260,1)	(-312,1)	(-357,1)	
L1D 383>	(1,11)	(0,22)	(-343,2)	(-383,124)	(-382,27)	(-179,2)	(-391,6)	(-1,4)	(-71,1)	(13,1)	(-2,7)	(-296,1)	(-315,2)	(-330,1)	(-249,1)	(-328,2)	
L1D 384>	(1,28)	(0,14)	(-384,11)	(-1,2)	(-386,2)	(-320,2)	(-414,2)	(-387,1)	(-335,1)	(-129,1)	(-329,1)	(-285,1)	(-125,1)	(-356,1)	(-256,2)	(6,2)	
L1D 385>	(-385,50)	(-1,3)	(0,41)	(1,24)	(7,1)	(47,1)	(-278,1)	(28,1)	(-384,1)	(-31,1)	(2,2)	(-262,1)	(-189,1)	(-188,1)	(-409,1)	(-290,1)	
L1D 386>	(0,32)	(-385,14)	(-386,110)	(-2,5)	(-1,7)	(1,8)	(11,1)	(-195,1)	(-47,1)	(-266,1)	(8,1)	(-135,1)	(-431,1)	(-294,1)	(-309,1)	(-49,1)	
L1D 387>	(-24,3)	(0,24)	(-8,2)	(4,1)	(-1,2)	(-5,1)	(1,7)	(-129,1)	(14,1)	(-12,1)	(13,1)	(-387,5)	(-386,2)	(-33,1)	(-94,1)	(-318,1)	
L1D 388>	(0,24)	(1,9)	(-193,2)	(-388,5)	(-364,1)	(13,1)	(-202,2)	(-332,1)	(-216,1)	(-203,2)	(-285,1)	(-317,1)	(14,1)	(-387,4)	(-73,1)	(-232,1)	
L1D 389>	(0,10)	(-388,10)	(-389,16)	(-115,2)	(1,4)	(26,1)	(4,2)	(12,1)	(-204,1)	(-253,1)	(-366,1)	(-372,1)	(5,5)	(-52,1)	(-180,1)	(-295,1)	
L1D 390>	(-390,109)	(1,8)	(-1,6)	(0,24)	(-2,3)	(-274,8)	(5,3)	(-291,3)	(-248,1)	(-283,1)	(-249,1)	(-326,1)	(-408,1)	(-223,1)	(-224,1)	(-380,1)	
L1D 391>	(0,8)	(-390,37)	(-391,95)	(-219,1)	(1,5)	(-2,12)	(-1,3)	(-275,3)	(-274,9)	(-353,1)	(-6,1)	(-327,1)	(-439,1)	(-393,1)	(-323,1)	(-354,1)	
L1D 392>	(0,33)	(-245,3)	(-392,84)	(1,10)	(-391,26)	(-404,4)	(-208,1)	(-360,2)	(-86,1)	(-376,1)	(-77,1)	(-175,1)	(-328,1)	(-220,1)	(-2,8)	(-1,14)	
L1D 393>	(-394,3)	(-34,3)	(13,2)	(-288,1)	(0,17)	(1,11)	(-4,12)	(-226,1)	(-420,1)	(-147,1)	(-279,1)	(-211,1)	(-404,1)	(-240,1)	(-422,1)	(-207,1)	
L1D 394>	(0,28)	(-395,2)	(-5,32)	(-435,1)	(-392,1)	(-394,19)	(-1,6)	(-3,1)	(-49,1)	(-21,1)	(-196,1)	(13,1)	(-83,1)	(1,10)	(-368,2)	(-252,1)	
L1D 395>	(-5,41)	(-6,29)	(2,1)	(0,25)	(-398,1)	(-396,7)	(-137,1)	(-394,16)	(-8,7)	(1,6)	(-76,1)	(-395,65)	(-1,16)	(4,1)	(11,1)	(-193,1)	
L1D 396>	(-105,8)	(0,23)	(-396,4)	(-1,3)	(-8,3)	(-276,2)	(-5,2)	(-6,14)	(-395,6)	(1,9)	(-9,2)	(-12,1)	(-53,1)	(-120,1)	(-156,1)	(6,1)	
L1D 397>	(-397,5)	(0,12)	(-6,1)	(-77,1)	(-170,1)	(1,8)	(-324,1)	(-262,1)	(-139,1)	(-308,1)	(-132,1)	(-121,1)	(-396,2)	(-75,1)	(-420,1)	(36,1)	
L1D 398>	(0,16)	(-131,1)	(-3,1)	(-398,4)	(-289,1)	(1,13)	(-129,1)	(-191,1)	(-395,1)	(-148,1)	(-11,1)	(-275,1)	(-345,1)	(-247,2)	(-381,1)	(-71,1)	
L1D 399>	(-248,1)	(-398,9)	(-399,35)	(0,24)	(1,12)	(7,2)	(-250,1)	(13,1)	(-482,1)	(-384,1)	(-1,1)	(-63,1)	(-369,1)	(-272,1)	(-190,1)	(-402,1)	
L1D 400>	(0,16)	(-399,14)	(1,10)	(-235,3)	(-66,2)	(41,1)	(-383,1)	(-295,1)	(-182,1)	(-278,1)	(-248,1)	(-170,1)	(-201,1)	(-61,1)	(-400,3)	(-1,1)	
L1D 401>	(0,13)	(1,8)	(-400,2)	(-65,3)	(-86,1)	(-394,1)	(-255,1)	(-14,1)	(-401,28)	(-1,9)	(-345,1)	(14,2)	(-338,1)	(-396,1)	(-310,1)	(-68,1)	
L1D 402>	(5,2)	(-110,1)	(-353,1)	(0,7)	(-338,2)	(-275,1)	(-16,1)	(1,6)	(-402,9)	(-401,7)	(65,1)	(-236,1)	(-394,1)	(-219,1)	(-146,1)	(-300,1)	
L1D 403>	(-402,2)	(-297,2)	(0,15)	(1,7)	(-248,1)	(42,1)	(5,1)	(-439,1)	(-233,1)	(-338,1)	(-61,3)	(12,2)	(-369,1)	(13,1)	(-28,1)	(-388,1)	
L1D 404>	(-404,10)	(0,20)	(-11,2)	(13,2)	(-297,4)	(1,6)	(-298,4)	(-110,4)	(-111,2)	(-28,2)	(-196,1)	(-287,1)	(6,1)	(-96,1)	(-147,1)	(-38,1)	
L1D 405>	(0,22)	(-1,5)	(-405,9)	(-341,2)	(1,4)	(-111,4)	(-288,1)	(-415,2)	(-404,3)	(13,1)	(-198,1)	(2,1)	(-229,1)	(-248,1)	(-116,1)	(-172,1)	
L1D 406>	(0,8)	(9,1)	(1,10)	(51,1)	(37,1)	(-427,1)	(6,1)	(-436,1)	(-187,1)	(-319,1)	(-330,1)	(-326,1)	(-220,1)	(-406,4)	(-342,2)	(-244,1)	
L1D 407>	(-407,12)	(0,16)	(-12,1)	(-136,4)	(-292,1)	(-270,2)	(2,3)	(3,1)	(-321,1)	(1,11)	(-133,2)	(-408,1)	(-259,1)	(-137,2)	(-269,1)	(-343,2)	
L1D 408>	(-340,2)	(-135,1)	(-408,11)	(-272,1)	(-407,17)	(-2,1)	(0,24)	(2,4)	(-307,2)	(-433,1)	(-193,1)	(1,10)	(-134,1)	(-344,1)	(-121,1)	(-235,1)	
L1D 409>	(0,18)	(-13,3)	(1,11)	(-49,1)	(-367,1)	(-1,13)	(-409,2)	(-208,1)	(-239,1)	(-296,1)	(-363,1)	(-61,1)	(3,1)	(-190,1)	(-364,1)	(-254,1)	
L1D 410>	(0,16)	(1,9)	(-278,1)	(-1,7)	(55,1)	(12,1)	(-18,2)	(-192,1)	(-247,1)	(9,1)	(-277,1)	(-381,1)	(-443,1)	(-410,1)	(-409,1)	(-408,1)	
L1D 411>	(0,15)	(-411,13)	(-1,5)	(1,8)	(-202,1)	(-371,1)	(-276,1)	(-410,9)	(-252,2)	(-58,1)	(-317,1)	(-362,1)	(-226,1)	(-452,1)	(-404,1)	(-427,1)	
L1D 412>	(0,30)	(-411,4)	(-412,38)	(1,13)	(-83,2)	(-15,2)	(-291,2)	(-321,1)	(-101,1)	(-1,6)	(-201,1)	(15,1)	(-136,1)	(-301,1)	(-173,1)	(-203,1)	
L1D 413>	(-412,3)	(1,7)	(-413,67)	(0,24)	(13,1)	(-2,2)	(-171,1)	(-214,1)	(-236,0)	(-389,0)	(-397,0)	(6,0)	(-301,0)	(-340,0)	(-349,1)	(-304,0)	
L1D 414>	(-1,7)	(-413,14)	(0,29)	(-350,2)	(1,8)	(-392,8)	(-414,17)	(-215,1)	(-289,1)	(-374,1)	(-255,1)	(-217,1)	(-39,1)	(57,1)	(-427,1)	(-211,1)	
L1D 415>	(-415,42)	(0,22)	(-1,5)	(1,10)	(-31,2)	(-414,6)	(-378,1)	(-77,1)	(5,2)	(-418,1)	(-2,2)	(-10,1)	(-16,1)	(-130,1)	(-173,1)	(-264,1)	
L1D 416>	(1,12)	(-416,9)	(-415,8)	(0,10)	(-310,1)	(-383,1)	(-138,1)	(-361,1)	(-319,1)	(-365,1)	(-426,1)	(-239,1)	(-299,1)	(-12,1)	(-82,5)	(-235,1)	
L1D 417>	(1,11)	(0,21)	(-217,1)	(-58,1)	(-417,3)	(-498,1)	(-13,1)	(-232,1)	(-153,1)	(-336,1)	(-373,1)	(-40,1)	(-418,1)	(-382,1)	(-8,1)	(-326,1)	
L1D 418>	(0,20)	(-91,1)	(-417,6)	(-1,2)	(-34,1)	(-235,1)	(14,4)	(1,8)	(-215,1)	(-198,1)	(-253,1)	(-411,1)	(-135,1)	(-354,2)	(-284,1)	(43,1)	
L1D 419>	(-196,3)	(-418,5)	(-1,5)	(0,21)	(-2,4)	(-341,9)	(1,5)	(-11,1)	(-419,8)	(-29,1)	(-30,1)	(-31,1)	(13,1)	(-20,1)	(-391,1)	(-420,1)	
L1D 420>	(0,17)	(1,9)	(-1,2)	(-217,3)	(13,1)	(-9,1)	(-33,3)	(10,1)	(-164,1)	(-297,1)	(-95,1)	(-420,15)	(-455,1)	(-419,2)	(-11,1)	(25,1)	
L1D 421>	(0,13)	(1,8)	(-420,3)	(-421,13)	(-1,3)	(-219,1)	(-231,1)	(-10,1)	(-213,1)	(-357,2)	(-365,1)	(-201,1)	(-418,1)	(-445,1)	(13,2)	(10,1)	
L1D 422>	(1,3)	(-422,9)	(-421,2)	(0,13)	(9,1)	(6,1)	(-51,1)	(5,1)	(-317,1)	(-200,1)	(-294,1)	(36,1)	(-6,1)	(40,2)	(-48,1)	(-73,1)	
L1D 423>	(-235,1)	(0,11)	(-423,10)	(-422,2)	(-2,2)	(11,1)	(-300,1)	(1,6)	(14,1)	(-155,1)	(-224,1)	(-175,1)	(-250,1)	(-297,1)	(-462,1)	(-11,1)	
L1D 424>	(-173,1)	(0,15)	(1,6)	(13,1)	(21,1)	(-8,2)	(-251,1)	(-260,1)	(-217,1)	(-55,1)	(-360,1)	(-432,1)	(-65,2)	(-337,1)	(-277,1)	(-316,1)	
L1D 425>	(0,29)	(-425,24)	(-83,2)	(-1,4)	(-311,1)	(1,5)	(-226,1)	(-242,1)	(-486,1)	(-255,1)	(-343,1)	(-355,1)	(-104,1)	(-10,1)	(-210,1)	(-424,5)	
L1D 426>	(-281,1)	(-3,1)	(-13,1)	(0,13)	(-426,9)	(-425,3)	(-147,2)	(-405,1)	(1,4)	(-1,3)	(-379,1)	(-199,1)	(-179,1)	(-231,1)	(-83,1)	(-130,1)	
L1D 427>	(0,12)	(-1,1)	(-464,1)	(-427,4)	(-337,1)	(5,1)	(-308,1)	(-276,1)	(-190,1)	(-211,1)	(-365,1)	(1,3)	(-395,1)	(-191,1)	(-20,1)	(-160,1)	
L1D 428>	(-427,4)	(-23,1)	(0,12)	(1,8)	(5,1)	(-129,1)	(43,1)	(-428,17)	(-17,1)	(-1,5)	(-429,1)	(-350,1)	(-294,1)	(-202,1)	(-269,1)	(-324,1)	
L1D 429>	(1,8)	(0,13)	(-429,4)	(-42,1)	(13,1)	(-181,1)	(-397,1)	(-343,1)	(-178,1)	(-309,1)	(28,1)	(-364,1)	(-225,1)	(-469,1)	(4,1)	(-135,1)	
L1D 430>	(-430,3)	(-416,1)	(-443,1)	(-429,13)	(0,14)	(11,1)	(-389,1)	(-266,1)	(-67,1)	(1,3)	(-227,4)	(-203,1)	(-31,1)	(-222,2)	(-439,1)	(-152,1)	
L1D 431>	(-93,1)	(-441,1)	(1,9)	(0,11)	(-3,1)	(-188,1)	(-19,1)	(-323,1)	(-381,1)	(-277,1)	(-305,1)	(-276,1)	(-184,1)	(-21,1)	(-379,1)	(-431,1)	
L1D 432>	(-19,1)	(-488,1)	(1,6)	(-13,1)	(0,10)	(-2,1)	(-325,1)	(-341,1)	(33,1)	(-490,1)	(-70,2)	(-431,6)	(-187,1)	(-235,1)	(-216,1)	(-366,1)	
L1D 433>	(0,11)	(-114,1)	(-45,1)	(1,7)	(-355,1)	(-341,1)	(9,1)	(-406,1)	(-433,2)	(-391,1)	(-207,1)	(-369,1)	(-226,1)	(7,1)	(-242,1)	(1,0)	
L1D 434>	(-434,9)	(0,9)	(-66,2)	(-280,1)	(-435,1)	(-392,1)	(-319,1)	(1,7)	(-57,1)	(-60,1)	(-417,1)	(-149,1)	(-287,1)	(-237,1)	(-221,1)	(-370,2)	
L1D 435>	(0,10)	(1,4)	(-351,1)	(-88,2)	(-303,1)	(-471,1)	(-281,1)	(-191,1)	(5,1)	(-435,5)	(-434,5)	(-237,1)	(-450,1)	(-338,1)	(-180,1)	(-165,1)	
L1D 436>	(-6,1)	(0,13)	(-419,1)	(-436,6)	(1,4)	(-56,1)	(-469,1)	(-437,1)	(-118,1)	(-435,2)	(-1,1)	(-371,1)	(-406,1)	(-336,1)	(-150,1)	(-253,1)	
L1D 437>	(-437,14)	(1,5)	(0,9)	(-374,1)	(-142,1)	(-86,1)	(-358,1)	(19,1)	(-436,2)	(-165,1)	(-170,1)	(-138,1)	(-310,1)	(-64,1)	(-163,2)	(-257,2)	
L1D 438>	(0,21)	(12,2)	(-323,1)	(1,5)	(-440,1)	(-132,1)	(-224,1)	(-378,1)	(-293,1)	(-252,1)	(-438,14)	(-1,4)	(-160,1)	(-469,1)	(-362,1)	(-247,1)	
L1D 439>	(-438,2)	(0,15)	(11,1)	(-440,1)	(-439,3)	(1,6)	(-27,1)	(-245,1)	(-406,1)	(-278,1)	(-375,1)	(-465,1)	(-54,1)	(-253,1)	(-404,1)	(-246,1)	
L1D 440>	(0,6)	(1,4)	(-440,8)	(-128,1)	(-42,1)	(-439,2)	(-1,1)	(17,1)	(-115,1)	(-375,2)	(-402,1)	(-397,1)	(-416,1)	(-155,1)	(-455,1)	(-405,1)	
L1D 441>	(0,16)	(-170,1)	(-1,2)	(-441,7)	(-440,1)	(-126,1)	(-325,1)	(-5,1)	(1,8)	(-12,1)	(-287,1)	(-404,1)	(-288,1)	(-204,1)	(10,1)	(-443,1)	
L1D 442>	(0,7)	(8,1)	(-462,1)	(-442,3)	(1,4)	(-12,2)	(-293,1)	(-401,1)	(-384,1)	(-342,1)	(-365,1)	(-86,1)	(-87,1)	(-259,1)	(-7,1)	(-411,1)	
L1D 443>	(-238,1)	(-9,2)	(0,12)	(-443,5)	(-1,1)	(-389,1)	(-298,1)	(-475,1)	(-402,1)	(-390,1)	(1,2)	(-260,1)	(-171,1)	(-278,1)	(1,0)	(1,0)	
L1D 444>	(0,18)	(1,7)	(-10,1)	(-444,5)	(-443,2)	(-386,1)	(-333,1)	(14,1)	(-80,1)	(-212,1)	(-351,1)	(-13,1)	(-474,1)	(-303,1)	(-64,1)	(-359,1)	
L1D 445>	(0,10)	(-196,1)	(-144,1)	(-25,1)	(-445,4)	(-148,1)	(-13,2)	(1,7)	(-444,1)	(-255,1)	(-253,1)	(-467,1)	(-27,1)	(-212,1)	(-336,1)	(-299,1)	
L1D 446>	(-279,1)	(-353,1)	(0,8)	(28,1)	(-138,1)	(-213,1)	(-194,1)	(-42,1)	(-443,1)	(13,1)	(-300,1)	(-446,4)	(1,4)	(-445,3)	(-4,1)	(-1,5)	
L1D 447>	(2,1)	(-201,1)	(-1,2)	(0,6)	(-302,1)	(-359,1)	(-353,1)	(-399,1)	(-433,1)	(6,1)	(11,2)	(-447,2)	(-389,1)	(-70,1)	(1,3)	(-215,1)	
L1D 448>	(0,8)	(-448,3)	(1,6)	(-17,2)	(-298,1)	(-242,1)	(-383,1)	(-207,1)	(-67,1)	(11,1)	(10,1)	(2,1)	(-321,1)	(-310,1)	(-274,1)	(-254,1)	
L1D 449>	(0,11)	(1,9)	(-337,1)	(11,1)	(8,1)	(-449,3)	(-402,1)	(10,1)	(-278,1)	(-347,1)	(-220,1)	(-413,1)	(-129,1)	(-407,1)	(-70,1)	(1,0)	
L1D 450>	(-144,1)	(9,1)	(-283,1)	(0,2)	(-195,1)	(-171,1)	(-177,1)	(-86,1)	(1,2)	(-270,1)	(-33,2)	(-1,1)	(-392,1)	(-322,1)	(-411,1)	(-242,1)	
L1D 451>	(1,7)	(-295,1)	(0,7)	(-272,1)	(-182,1)	(-278,1)	(-197,1)	(8,1)	(-170,1)	(-1,1)	(12,1)	(-327,1)	(-450,2)	(1,0)	(1,0)	(1,0)	
L1D 452>	(-236,2)	(1,5)	(0,12)	(-60,1)	(-308,1)	(-409,1)	(-341,1)	(3,1)	(-452,4)	(-1,1)	(-343,1)	(-359,1)	(-451,2)	(-436,1)	(-403,1)	(-354,1)	
L1D 453>	(-452,8)	(-403,1)	(-453,20)	(-1,3)	(1,7)	(-291,1)	(-358,1)	(0,5)	(-42,1)	(-385,1)	(-170,1)	(-216,1)	(3,1)	(-451,1)	(-247,1)	(-221,1)	
L1D 454>	(0,14)	(-12,1)	(-252,1)	(-242,1)	(-254,1)	(-314,1)	(-280,1)	(-485,1)	(1,2)	(-189,2)	(-413,1)	(-445,1)	(-246,1)	(-453,1)	(-345,1)	(23,1)	
L1D 455>	(-391,2)	(0,9)	(1,3)	(-297,1)	(-455,2)	(-427,1)	(-225,1)	(-206,1)	(-393,1)	(-129,1)	(13,1)	(-454,3)	(-249,1)	(-436,1)	(-264,1)	(-388,1)	
L1D 456>	(0,11)	(-318,1)	(-456,5)	(-373,1)	(-321,1)	(-222,1)	(-266,1)	(-1,3)	(1,3)	(-423,2)	(-56,5)	(-455,3)	(12,1)	(-4,2)	(-241,1)	(-178,1)	
L1D 457>	(1,7)	(6,1)	(0,12)	(-457,10)	(-4,1)	(-456,6)	(-209,1)	(-188,1)	(-276,1)	(-418,1)	(-251,1)	(-240,1)	(-270,1)	(-1,1)	(1,0)	(1,0)	
L1D 458>	(-457,2)	(1,5)	(0,7)	(-328,1)	(-7,1)	(-79,1)	(-84,1)	(-219,1)	(-195,1)	(-329,1)	(-307,1)	(-379,1)	(-312,1)	(-18,1)	(-277,1)	(-271,1)	
L1D 459>	(-88,2)	(-457,1)	(-459,7)	(0,11)	(-460,2)	(-1,1)	(1,4)	(-9,1)	(-129,1)	(-376,1)	(-367,1)	(-304,1)	(-351,1)	(-222,1)	(-218,1)	(-458,4)	
L1D 460>	(1,5)	(-459,3)	(-409,2)	(-68,1)	(-388,1)	(0,2)	(-4,1)	(-326,1)	(-271,1)	(-401,1)	(-83,5)	(-1,1)	(-439,1)	(-128,1)	(-382,1)	(8,1)	
L1D 461>	(12,3)	(-129,2)	(-397,2)	(-462,3)	(-461,2)	(-173,1)	(-207,6)	(0,5)	(-312,1)	(-365,1)	(-213,1)	(-406,1)	(-357,1)	(-1,1)	(-232,1)	(-71,1)	
L1D 462>	(-129,3)	(0,8)	(-73,1)	(-462,4)	(-345,1)	(5,1)	(-1,1)	(-398,1)	(-396,1)	(-11,1)	(31,1)	(-439,1)	(12,3)	(11,1)	(1,0)	(1,0)	
L1D 463>	(0,3)	(-204,1)	(1,4)	(-454,1)	(-401,1)	(-207,1)	(-219,1)	(-323,1)	(-33,1)	(-307,1)	(-38,1)	(-455,1)	(-205,1)	(11,1)	(1,0)	(1,0)	
L1D 464>	(-265,1)	(-452,1)	(0,5)	(-472,1)	(1,4)	(-466,1)	(-277,1)	(-464,3)	(-463,1)	(-1,1)	(11,1)	(-400,1)	(-301,1)	(-214,1)	(-31,1)	(1,0)	
L1D 465>	(0,9)	(-276,1)	(-205,1)	(-421,1)	(-47,1)	(-106,1)	(-465,1)	(-453,1)	(1,0)	(1,0)	(1,0)	(1,0)	(1,0)	(1,0)	(1,0)	(1,0)	
L1D 466>	(-279,1)	(-268,1)	(0,8)	(1,4)	(-281,1)	(-409,1)	(-262,1)	(-449,1)	(-48,1)	(-115,1)	(-229,1)	(-253,1)	(-186,1)	(17,1)	(8,1)	(1,0)	
L1D 467>	(13,3)	(0,9)	(12,1)	(-448,1)	(-316,1)	(-332,1)	(-298,1)	(-318,1)	(-354,1)	(-467,3)	(-475,1)	(-1,2)	(-6,1)	(-122,1)	(1,1)	(1,0)	
L1D 468>	(1,2)	(-24,1)	(0,6)	(-44,1)	(-362,1)	(-379,1)	(-274,1)	(-206,1)	(2,1)	(-284,1)	(1,0)	(1,0)	(1,0)	(1,0)	(1,0)	(1,0)	
L1D 469>	(-303,1)	(0,9)	(1,2)	(-262,1)	(-365,1)	(-229,1)	(-115,1)	(-405,1)	(-4,2)	(-14,1)	(-2,1)	(-341,1)	(-394,1)	(-76,1)	(-469,3)	(-1,1)	
L1D 470>	(-470,17)	(-451,1)	(1,4)	(-480,1)	(-1,3)	(0,1)	(-178,1)	(-374,1)	(-288,1)	(-469,4)	(-425,1)	(1,0)	(1,0)	(1,0)	(1,0)	(1,0)	
L1D 471>	(-451,1)	(-266,1)	(-2,1)	(8,1)	(-10,1)	(22,1)	(-333,1)	(-269,1)	(1,7)	(-437,1)	(-471,10)	(0,6)	(-1,2)	(5,1)	(-358,1)	(1,0)	
L1D 472>	(-472,12)	(0,6)	(-5,1)	(1,1)	(-43,1)	(-305,1)	(-475,3)	(-158,1)	(-198,1)	(-471,4)	(-324,1)	(-241,1)	(1,0)	(1,0)	(1,0)	(1,0)	
L1D 473>	(1,6)	(-14,1)	(0,11)	(-473,19)	(-6,1)	(11,1)	(-5,1)	(-331,1)	(-431,1)	(-435,1)	(-490,1)	(-69,1)	(-474,1)	(-4,1)	(-445,4)	(-234,1)	
L1D 474>	(0,9)	(-219,1)	(5,1)	(-149,1)	(-326,1)	(-258,1)	(-131,1)	(-273,1)	(-230,1)	(-474,10)	(-1,10)	(-473,4)	(-446,5)	(-14,2)	(-5,1)	(-4,1)	
L1D 475>	(-475,9)	(-474,2)	(0,6)	(31,1)	(1,1)	(-29,1)	(-269,1)	(-467,1)	(8,1)	(-31,1)	(4,1)	(1,0)	(1,0)	(1,0)	(1,0)	(1,0)	
L1D 476>	(0,10)	(-475,8)	(-50,1)	(-2,1)	(1,3)	(-362,1)	(-320,1)	(-34,1)	(-333,1)	(-309,1)	(3,1)	(1,0)	(1,0)	(1,0)	(1,0)	(1,0)	
L1D 477>	(0,4)	(1,4)	(-133,1)	(-414,1)	(-336,1)	(-451,1)	(11,1)	(-202,1)	(1,0)	(1,0)	(1,0)	(1,0)	(1,0)	(1,0)	(1,0)	(1,0)	
L1D 478>	(0,4)	(-321,1)	(-478,1)	(-328,1)	(-227,1)	(1,1)	(17,1)	(1,0)	(1,0)	(1,0)	(1,0)	(1,0)	(1,0)	(1,0)	(1,0)	(1,0)	
L1D 479>	(-54,1)	(1,2)	(-7,1)	(-118,1)	(-478,3)	(-297,1)	(-238,1)	(0,2)	(-136,1)	(-1,2)	(-480,1)	(-494,1)	(-438,1)	(-309,1)	(-421,1)	(1,0)	
L1D 480>	(-336,1)	(-5,1)	(-480,2)	(-13,1)	(0,5)	(-106,1)	(-171,1)	(-154,1)	(1,2)	(-247,1)	(-284,1)	(-264,1)	(1,0)	(1,0)	(1,0)	(1,0)	
L1D 481>	(0,3)	(1,1)	(-375,1)	(-282,1)	(1,0)	(1,0)	(1,0)	(1,0)	(1,0)	(1,0)	(1,0)	(1,0)	(1,0)	(1,0)	(1,0)	(1,0)	
L1D 482>	(1,1)	(-253,1)	(-298,1)	(0,4)	(-133,1)	(-187,1)	(-29,2)	(1,0)	(1,0)	(1,0)	(1,0)	(1,0)	(1,0)	(1,0)	(1,0)	(1,0)	
L1D 483>	(0,4)	(-387,1)	(-113,1)	(-49,1)	(-451,1)	(1,0)	(1,0)	(1,0)	(1,0)	(1,0)	(1,0)	(1,0)	(1,0)	(1,0)	(1,0)	(1,0)	
L1D 484>	(1,3)	(0,4)	(-335,1)	(-312,1)	(-425,1)	(-80,1)	(-130,1)	(9,1)	(1,0)	(1,0)	(1,0)	(1,0)	(1,0)	(1,0)	(1,0)	(1,0)	
L1D 485>	(-484,2)	(-303,1)	(0,5)	(-1,1)	(-324,1)	(-27,2)	(1,1)	(1,0)	(1,0)	(1,0)	(1,0)	(1,0)	(1,0)	(1,0)	(1,0)	(1,0)	
L1D 486>	(-106,2)	(1,3)	(0,4)	(-288,1)	(-207,1)	(-247,1)	(-250,1)	(-203,1)	(-321,1)	(-140,3)	(-326,1)	(1,0)	(1,0)	(1,0)	(1,0)	(1,0)	
L1D 487>	(0,3)	(1,4)	(-487,5)	(-291,1)	(-371,1)	(-30,1)	(6,1)	(-287,1)	(-307,1)	(-257,1)	(-140,7)	(1,0)	(1,0)	(1,0)	(1,0)	(1,0)	
L1D 488>	(-5,1)	(-324,1)	(-29,1)	(-304,1)	(-489,1)	(-27,1)	(1,1)	(-488,1)	(1,0)	(1,0)	(1,0)	(1,0)	(1,0)	(1,0)	(1,0)	(1,0)	
L1D 489>	(-77,1)	(0,8)	(-362,1)	(-489,2)	(-488,1)	(-1,1)	(-186,1)	(1,0)	(1,0)	(1,0)	(1,0)	(1,0)	(1,0)	(1,0)	(1,0)	(1,0)	
L1D 490>	(-94,1)	(-380,1)	(-146,1)	(1,1)	(-452,1)	(-279,1)	(-91,2)	(-490,1)	(-76,1)	(0,1)	(1,0)	(1,0)	(1,0)	(1,0)	(1,0)	(1,0)	
L1D 491>	(-491,4)	(-1,1)	(0,6)	(-167,1)	(-16,1)	(-259,1)	(-325,1)	(-320,1)	(-108,1)	(1,0)	(1,0)	(1,0)	(1,0)	(1,0)	(1,0)	(1,0)	
L1D 492>	(-492,7)	(-491,2)	(0,2)	(-360,1)	(-251,1)	(-482,1)	(-436,1)	(-1,2)	(-411,1)	(1,0)	(1,0)	(1,0)	(1,0)	(1,0)	(1,0)	(1,0)	
L1D 493>	(-1,1)	(-30,1)	(-490,1)	(-429,1)	(-279,1)	(-313,1)	(1,0)	(1,0)	(1,0)	(1,0)	(1,0)	(1,0)	(1,0)	(1,0)	(1,0)	(1,0)	
L1D 494>	(-402,1)	(0,4)	(1,0)	(1,0)	(1,0)	(1,0)	(1,0)	(1,0)	(1,0)	(1,0)	(1,0)	(1,0)	(1,0)	(1,0)	(1,0)	(1,0)	
L1D 495>	(0,3)	(1,5)	(-367,1)	(-332,1)	(-11,1)	(-1,1)	(1,0)	(1,0)	(1,0)	(1,0)	(1,0)	(1,0)	(1,0)	(1,0)	(1,0)	(1,0)	
L1D 496>	(1,2)	(0,3)	(-428,1)	(-7,1)	(1,0)	(1,0)	(1,0)	(1,0)	(1,0)	(1,0)	(1,0)	(1,0)	(1,0)	(1,0)	(1,0)	(1,0)	
L1D 497>	(-5,1)	(-325,1)	(-293,1)	(-497,3)	(-496,1)	(0,8)	(-425,1)	(1,0)	(1,0)	(1,0)	(1,0)	(1,0)	(1,0)	(1,0)	(1,0)	(1,0)	
L1D 498>	(-498,5)	(0,3)	(-128,1)	(1,0)	(1,0)	(1,0)	(1,0)	(1,0)	(1,0)	(1,0)	(1,0)	(1,0)	(1,0)	(1,0)	(1,0)	(1,0)	
L1D 499>	(0,5)	(-380,1)	(-218,1)	(-398,1)	(-205,1)	(-295,1)	(-289,1)	(1,1)	(1,0)	(1,0)	(1,0)	(1,0)	(1,0)	(1,0)	(1,0)	(1,0)	
L1D 500>	(-271,1)	(-95,1)	(0,3)	(-138,1)	(-69,1)	(-141,1)	(-407,1)	(1,0)	(1,0)	(1,0)	(1,0)	(1,0)	(1,0)	(1,0)	(1,0)	(1,0)	
L1D 501>	(1,1)	(-182,1)	(-290,1)	(0,1)	(-447,1)	(1,0)	(1,0)	(1,0)	(1,0)	(1,0)	(1,0)	(1,0)	(1,0)	(1,0)	(1,0)	(1,0)	
L1D 502>	(-6,1)	(-422,1)	(-393,1)	(-358,1)	(1,0)	(1,0)	(1,0)	(1,0)	(1,0)	(1,0)	(1,0)	(1,0)	(1,0)	(1,0)	(1,0)	(1,0)	
L1D 503>	(-416,1)	(-110,1)	(-496,1)	(-406,1)	(1,1)	(0,1)	(1,0)	(1,0)	(1,0)	(1,0)	(1,0)	(1,0)	(1,0)	(1,0)	(1,0)	(1,0)	
L1D 504>	(-248,1)	(-444,1)	(-30,1)	(1,0)	(1,0)	(1,0)	(1,0)	(1,0)	(1,0)	(1,0)	(1,0)	(1,0)	(1,0)	(1,0)	(1,0)	(1,0)	
L1D 505>	(-261,1)	(0,1)	(1,2)	(-227,1)	(-34,1)	(1,0)	(1,0)	(1,0)	(1,0)	(1,0)	(1,0)	(1,0)	(1,0)	(1,0)	(1,0)	(1,0)	
L1D 506>	(1,2)	(-303,1)	(0,6)	(-506,3)	(-302,1)	(-314,1)	(1,0)	(1,0)	(1,0)	(1,0)	(1,0)	(1,0)	(1,0)	(1,0)	(1,0)	(1,0)	
L1D 507>	(1,0)	(1,0)	(1,0)	(1,0)	(1,0)	(1,0)	(1,0)	(1,0)	(1,0)	(1,0)	(1,0)	(1,0)	(1,0)	(1,0)	(1,0)	(1,0)	
L1D 508>	(1,0)	(1,0)	(1,0)	(1,0)	(1,0)	(1,0)	(1,0)	(1,0)	(1,0)	(1,0)	(1,0)	(1,0)	(1,0)	(1,0)	(1,0)	(1,0)	
L1D 509>	(-45,1)	(1,0)	(1,0)	(1,0)	(1,0)	(1,0)	(1,0)	(1,0)	(1,0)	(1,0)	(1,0)	(1,0)	(1,0)	(1,0)	(1,0)	(1,0)	
L1D 510>	(0,1)	(1,0)	(1,0)	(1,0)	(1,0)	(1,0)	(1,0)	(1,0)	(1,0)	(1,0)	(1,0)	(1,0)	(1,0)	(1,0)	(1,0)	(1,0)	
L1D 511>	(1,0)	(1,0)	(1,0)	(1,0)	(1,0)	(1,0)	(1,0)	(1,0)	(1,0)	(1,0)	(1,0)	(1,0)	(1,0)	(1,0)	(1,0)	(1,0)	

DRAM Statistics
 CHANNEL 0
 RQ ROW_BUFFER_HIT:       1184  ROW_BUFFER_MISS:      32798
 DBUS_CONGESTED:      18208
 WQ ROW_BUFFER_HIT:       1565  ROW_BUFFER_MISS:      13924  FULL:          0

 AVG_CONGESTED_CYCLE: 6

CPU 0 Branch Prediction Accuracy: 87.8703% MPKI: 15.9547 Average ROB Occupancy at Mispredict: 23.0927

Branch types
NOT_BRANCH: 8684294 86.8429%
BRANCH_DIRECT_JUMP: 130700 1.307%
BRANCH_INDIRECT: 18906 0.18906%
BRANCH_CONDITIONAL: 1141485 11.4148%
BRANCH_DIRECT_CALL: 7681 0.07681%
BRANCH_INDIRECT_CALL: 4446 0.04446%
BRANCH_RETURN: 12129 0.12129%
BRANCH_OTHER: 0 0%

